REMARK  Name = 
REMARK  3 active torsions:
REMARK  status: ('A' for Active; 'I' for Inactive)
REMARK    1  A    between atoms: CA_2  and  CB_3
REMARK    2  A    between atoms: CA_2  and  C_7
REMARK    3  A    between atoms: CB_3  and  CG_4
REMARK                            x       y       z     vdW  Elec       q    Type
REMARK                         _______ _______ _______ _____ _____    ______ ____
ROOT
ATOM      1  N   ASP A   1      -0.653  -0.390  -1.889  0.00  0.00    +0.000 NA
ATOM      2  CA  ASP A   1      -0.406  -0.588  -0.323  0.00  0.00    +0.000 C 
ENDROOT
BRANCH   2   7
ATOM      7  C   ASP A   1      -1.758   0.258   0.042  0.00  0.00    +0.000 C 
ATOM      8  O   ASP A   1      -1.642   0.914   1.117  0.00  0.00    +0.000 OA
ATOM      9  OXT ASP A   1      -2.893  -0.540  -0.148  0.00  0.00    +0.000 OA
ENDBRANCH   2   7
BRANCH   2   3
ATOM      3  CB  ASP A   1       0.547   0.779  -0.254  0.00  0.00    +0.000 C 
BRANCH   3   4
ATOM      4  CG  ASP A   1       1.921   0.196  -0.364  0.00  0.00    +0.000 C 
ATOM      5  OD1 ASP A   1       2.218  -0.490  -1.388  0.00  0.00    +0.000 OA
ATOM      6  OD2 ASP A   1       2.666  -0.139   0.771  0.00  0.00    +0.000 OA
ENDBRANCH   3   4
ENDBRANCH   2   3
TORSDOF 3
