REMARK  Name = 
REMARK  7 active torsions:
REMARK  status: ('A' for Active; 'I' for Inactive)
REMARK    1  A    between atoms: CA_2  and  CB_3
REMARK    2  A    between atoms: CA_2  and  C_7
REMARK    3  A    between atoms: CB_3  and  CG_4
REMARK    4  A    between atoms: N_9  and  CA_10
REMARK    5  A    between atoms: CA_10  and  CB_11
REMARK    6  A    between atoms: CA_10  and  C_18
REMARK    7  A    between atoms: CB_11  and  CG_12
REMARK                            x       y       z     vdW  Elec       q    Type
REMARK                         _______ _______ _______ _____ _____    ______ ____
ROOT
ATOM     10  CA  PHE A   2      -0.262  -0.936  -1.082  0.00  0.00    +0.000 C 
ENDROOT
BRANCH  10   9
ATOM      7  C   ASP A   1       1.638  -0.172   0.201  0.00  0.00    +0.000 C 
ATOM      8  O   ASP A   1       2.090   0.704  -0.532  0.00  0.00    +0.000 OA
ATOM      9  N   PHE A   2       0.206  -0.024   0.106  0.00  0.00    +0.000 NA
BRANCH   7   2
ATOM      1  N   ASP A   1       3.379   0.374   1.671  0.00  0.00    +0.000 NA
ATOM      2  CA  ASP A   1       1.883  -0.102   1.795  0.00  0.00    +0.000 C 
BRANCH   2   3
ATOM      3  CB  ASP A   1       2.277  -1.689   1.853  0.00  0.00    +0.000 C 
BRANCH   3   4
ATOM      4  CG  ASP A   1       3.393  -1.996   1.007  0.00  0.00    +0.000 C 
ATOM      5  OD1 ASP A   1       3.949  -1.368   0.097  0.00  0.00    +0.000 OA
ATOM      6  OD2 ASP A   1       3.657  -3.377   0.981  0.00  0.00    +0.000 OA
ENDBRANCH   3   4
ENDBRANCH   2   3
ENDBRANCH   7   2
ENDBRANCH  10   9
BRANCH  10  18
ATOM     18  C   PHE A   2      -0.744   0.257  -2.044  0.00  0.00    +0.000 C 
ATOM     19  O   PHE A   2      -0.315   1.388  -1.924  0.00  0.00    +0.000 OA
ATOM     20  OXT PHE A   2      -1.171  -0.305  -3.234  0.00  0.00    +0.000 OA
ENDBRANCH  10  18
BRANCH  10  11
ATOM     11  CB  PHE A   2      -1.748  -1.101  -0.383  0.00  0.00    +0.000 C 
BRANCH  11  12
ATOM     12  CG  PHE A   2      -2.278   0.257  -0.167  0.00  0.00    +0.000 A 
ATOM     13  CD1 PHE A   2      -1.905   1.158   0.792  0.00  0.00    +0.000 A 
ATOM     14  CE1 PHE A   2      -2.453   2.432   0.795  0.00  0.00    +0.000 A 
ATOM     15  CZ  PHE A   2      -3.827   2.419   0.605  0.00  0.00    +0.000 A 
ATOM     16  CE2 PHE A   2      -4.310   1.527  -0.336  0.00  0.00    +0.000 A 
ATOM     17  CD2 PHE A   2      -3.459   0.553  -0.850  0.00  0.00    +0.000 A 
ENDBRANCH  11  12
ENDBRANCH  10  11
TORSDOF 7
