REMARK  Name = 
REMARK  5 active torsions:
REMARK  status: ('A' for Active; 'I' for Inactive)
REMARK    1  A    between atoms: CA_2  and  N_3
REMARK    2  A    between atoms: CA_2  and  C_12
REMARK    3  A    between atoms: C_4  and  CA_6
REMARK    4  A    between atoms: CA_6  and  CB_8
REMARK    5  A    between atoms: CB_8  and  CG_9
REMARK                            x       y       z     vdW  Elec       q    Type
REMARK                         _______ _______ _______ _____ _____    ______ ____
ROOT
ATOM      3  N   ALA A   2       0.579   0.858  -0.111  0.00  0.00    +0.000 NA
ATOM      4  C   ASP A   1       0.135  -0.376   0.325  0.00  0.00    +0.000 C 
ATOM      5  O   ASP A   1       0.928  -1.037   0.911  0.00  0.00    +0.000 OA
ENDROOT
BRANCH   3   2
ATOM      1  CB  ALA A   2       2.304   2.276  -0.608  0.00  0.00    +0.000 C 
ATOM      2  CA  ALA A   2       1.744   0.832  -1.170  0.00  0.00    +0.000 C 
BRANCH   2  12
ATOM     12  C   ALA A   2       2.765  -0.053  -0.284  0.00  0.00    +0.000 C 
ATOM     13  O   ALA A   2       2.914  -1.156  -0.920  0.00  0.00    +0.000 OA
ATOM     14  OXT ALA A   2       4.070   0.467  -0.195  0.00  0.00    +0.000 OA
ENDBRANCH   2  12
ENDBRANCH   3   2
BRANCH   4   6
ATOM      6  CA  ASP A   1      -1.289  -0.919  -0.172  0.00  0.00    +0.000 C 
ATOM      7  N   ASP A   1      -1.210  -2.274   0.634  0.00  0.00    +0.000 NA
BRANCH   6   8
ATOM      8  CB  ASP A   1      -2.065  -0.161   1.066  0.00  0.00    +0.000 C 
BRANCH   8   9
ATOM      9  CG  ASP A   1      -3.250   0.355   0.318  0.00  0.00    +0.000 C 
ATOM     10  OD1 ASP A   1      -4.159  -0.503   0.110  0.00  0.00    +0.000 OA
ATOM     11  OD2 ASP A   1      -3.465   1.690   0.067  0.00  0.00    +0.000 OA
ENDBRANCH   8   9
ENDBRANCH   6   8
ENDBRANCH   4   6
TORSDOF 5
