REMARK  Name = 
REMARK  6 active torsions:
REMARK  status: ('A' for Active; 'I' for Inactive)
REMARK    1  A    between atoms: CB_2  and  CA_4
REMARK    2  A    between atoms: CA_4  and  N_5
REMARK    3  A    between atoms: CA_4  and  C_14
REMARK    4  A    between atoms: C_6  and  CA_8
REMARK    5  A    between atoms: CA_8  and  CB_10
REMARK    6  A    between atoms: CB_10  and  CG_11
REMARK                            x       y       z     vdW  Elec       q    Type
REMARK                         _______ _______ _______ _____ _____    ______ ____
ROOT
ATOM      5  N   VAL A   2      -0.805  -0.721   0.253  0.00  0.00    +0.000 NA
ATOM      6  C   ASP A   1       0.344   0.013  -0.129  0.00  0.00    +0.000 C 
ATOM      7  O   ASP A   1       0.399   1.047  -0.768  0.00  0.00    +0.000 OA
ENDROOT
BRANCH   6   8
ATOM      8  CA  ASP A   1       1.753  -0.784   0.133  0.00  0.00    +0.000 C 
ATOM      9  N   ASP A   1       2.112  -0.781  -1.433  0.00  0.00    +0.000 NA
BRANCH   8  10
ATOM     10  CB  ASP A   1       2.603   0.640   0.380  0.00  0.00    +0.000 C 
BRANCH  10  11
ATOM     11  CG  ASP A   1       3.974   0.107   0.152  0.00  0.00    +0.000 C 
ATOM     12  OD1 ASP A   1       4.639   0.726  -0.721  0.00  0.00    +0.000 OA
ATOM     13  OD2 ASP A   1       4.608  -0.574   1.197  0.00  0.00    +0.000 OA
ENDBRANCH  10  11
ENDBRANCH   8  10
ENDBRANCH   6   8
BRANCH   5   4
ATOM      4  CA  VAL A   2      -1.851   0.351   0.840  0.00  0.00    +0.000 C 
BRANCH   4   2
ATOM      1  CG1 VAL A   2      -4.141  -0.039   1.559  0.00  0.00    +0.000 C 
ATOM      2  CB  VAL A   2      -2.912  -0.865   1.292  0.00  0.00    +0.000 C 
ATOM      3  CG2 VAL A   2      -3.026  -1.757   0.094  0.00  0.00    +0.000 C 
ENDBRANCH   4   2
BRANCH   4  14
ATOM     14  C   VAL A   2      -2.633   0.602  -0.582  0.00  0.00    +0.000 C 
ATOM     15  O   VAL A   2      -2.188   0.053  -1.583  0.00  0.00    +0.000 OA
ATOM     16  OXT VAL A   2      -2.877   1.981  -0.682  0.00  0.00    +0.000 OA
ENDBRANCH   4  14
ENDBRANCH   5   4
TORSDOF 6
