REMARK  Name = 
REMARK  5 active torsions:
REMARK  status: ('A' for Active; 'I' for Inactive)
REMARK    1  A    between atoms: CA_2  and  N_3
REMARK    2  A    between atoms: CA_2  and  C_12
REMARK    3  A    between atoms: C_4  and  CA_6
REMARK    4  A    between atoms: CA_6  and  CB_8
REMARK    5  A    between atoms: CB_8  and  CG_9
REMARK                            x       y       z     vdW  Elec       q    Type
REMARK                         _______ _______ _______ _____ _____    ______ ____
ROOT
ATOM      3  N   ALA A   2      -1.119  -0.953   0.316  0.00  0.00    +0.000 NA
ATOM      4  C   ASP A   1       0.172  -0.376   0.228  0.00  0.00    +0.000 C 
ATOM      5  O   ASP A   1       0.507   0.350   1.218  0.00  0.00    +0.000 OA
ENDROOT
BRANCH   3   2
ATOM      1  CB  ALA A   2      -3.320  -1.312   1.015  0.00  0.00    +0.000 C 
ATOM      2  CA  ALA A   2      -2.104  -0.228   1.327  0.00  0.00    +0.000 C 
BRANCH   2  12
ATOM     12  C   ALA A   2      -2.626   0.798   0.173  0.00  0.00    +0.000 C 
ATOM     13  O   ALA A   2      -3.646   1.450   0.563  0.00  0.00    +0.000 OA
ATOM     14  OXT ALA A   2      -1.611   1.680  -0.230  0.00  0.00    +0.000 OA
ENDBRANCH   2  12
ENDBRANCH   3   2
BRANCH   4   6
ATOM      6  CA  ASP A   1       1.403  -1.430   0.078  0.00  0.00    +0.000 C 
ATOM      7  N   ASP A   1       0.670  -2.246  -1.071  0.00  0.00    +0.000 NA
BRANCH   6   8
ATOM      8  CB  ASP A   1       2.167  -0.460  -1.032  0.00  0.00    +0.000 C 
BRANCH   8   9
ATOM      9  CG  ASP A   1       2.831   0.575  -0.177  0.00  0.00    +0.000 C 
ATOM     10  OD1 ASP A   1       2.490   1.782  -0.298  0.00  0.00    +0.000 OA
ATOM     11  OD2 ASP A   1       4.187   0.370   0.046  0.00  0.00    +0.000 OA
ENDBRANCH   8   9
ENDBRANCH   6   8
ENDBRANCH   4   6
TORSDOF 5
