REMARK  Name = 
REMARK  8 active torsions:
REMARK  status: ('A' for Active; 'I' for Inactive)
REMARK    1  A    between atoms: CD_2  and  CG_4
REMARK    2  A    between atoms: CG_4  and  CB_5
REMARK    3  A    between atoms: CB_5  and  CA_6
REMARK    4  A    between atoms: CA_6  and  N_7
REMARK    5  A    between atoms: CA_6  and  C_16
REMARK    6  A    between atoms: C_8  and  CA_10
REMARK    7  A    between atoms: CA_10  and  CB_12
REMARK    8  A    between atoms: CB_12  and  CG_13
REMARK                            x       y       z     vdW  Elec       q    Type
REMARK                         _______ _______ _______ _____ _____    ______ ____
ROOT
ATOM      6  CA  GLN A   2      -0.559  -1.627   0.697  0.00  0.00    +0.000 C 
ENDROOT
BRANCH   6   7
ATOM      7  N   GLN A   2       0.103  -0.199   0.374  0.00  0.00    +0.000 NA
ATOM      8  C   ASP A   1       1.162  -0.447  -0.487  0.00  0.00    +0.000 C 
ATOM      9  O   ASP A   1       1.764  -1.525  -0.670  0.00  0.00    +0.000 OA
BRANCH   8  10
ATOM     10  CA  ASP A   1       2.216   0.778  -0.770  0.00  0.00    +0.000 C 
ATOM     11  N   ASP A   1       1.048   1.882  -0.859  0.00  0.00    +0.000 NA
BRANCH  10  12
ATOM     12  CB  ASP A   1       2.435   1.065   0.869  0.00  0.00    +0.000 C 
BRANCH  12  13
ATOM     13  CG  ASP A   1       3.863   1.516   0.819  0.00  0.00    +0.000 C 
ATOM     14  OD1 ASP A   1       4.801   0.738   0.518  0.00  0.00    +0.000 OA
ATOM     15  OD2 ASP A   1       4.050   2.898   0.709  0.00  0.00    +0.000 OA
ENDBRANCH  12  13
ENDBRANCH  10  12
ENDBRANCH   8  10
ENDBRANCH   6   7
BRANCH   6  16
ATOM     16  C   GLN A   2      -1.534  -1.591  -0.631  0.00  0.00    +0.000 C 
ATOM     17  O   GLN A   2      -0.926  -1.268  -1.683  0.00  0.00    +0.000 OA
ATOM     18  OXT GLN A   2      -2.002  -2.916  -0.722  0.00  0.00    +0.000 OA
ENDBRANCH   6  16
BRANCH   6   5
ATOM      5  CB  GLN A   2      -1.738  -0.927   1.664  0.00  0.00    +0.000 C 
BRANCH   5   4
ATOM      4  CG  GLN A   2      -2.257   0.229   0.893  0.00  0.00    +0.000 C 
BRANCH   4   2
ATOM      1  NE2 GLN A   2      -4.316   1.585   0.820  0.00  0.00    +0.000 NA
ATOM      2  CD  GLN A   2      -3.718   0.299   0.740  0.00  0.00    +0.000 C 
ATOM      3  OE1 GLN A   2      -4.389  -0.490   0.008  0.00  0.00    +0.000 OA
ENDBRANCH   4   2
ENDBRANCH   5   4
ENDBRANCH   6   5
TORSDOF 8
