REMARK  Name = 
REMARK  7 active torsions:
REMARK  status: ('A' for Active; 'I' for Inactive)
REMARK    1  A    between atoms: CG_2  and  CB_4
REMARK    2  A    between atoms: CB_4  and  CA_5
REMARK    3  A    between atoms: CA_5  and  N_6
REMARK    4  A    between atoms: CA_5  and  C_15
REMARK    5  A    between atoms: C_7  and  CA_9
REMARK    6  A    between atoms: CA_9  and  CB_11
REMARK    7  A    between atoms: CB_11  and  CG_12
REMARK                            x       y       z     vdW  Elec       q    Type
REMARK                         _______ _______ _______ _____ _____    ______ ____
ROOT
ATOM      6  N   LEU A   2      -0.016  -0.721  -0.529  0.00  0.00    +0.000 NA
ATOM      7  C   ASP A   1       0.608   0.502  -0.849  0.00  0.00    +0.000 C 
ATOM      8  O   ASP A   1      -0.119   1.522  -0.747  0.00  0.00    +0.000 OA
ENDROOT
BRANCH   7   9
ATOM      9  CA  ASP A   1       1.914   0.556   0.159  0.00  0.00    +0.000 C 
ATOM     10  N   ASP A   1       2.251   2.081  -0.212  0.00  0.00    +0.000 NA
BRANCH   9  11
ATOM     11  CB  ASP A   1       2.933  -0.001  -1.044  0.00  0.00    +0.000 C 
BRANCH  11  12
ATOM     12  CG  ASP A   1       4.177  -0.189  -0.244  0.00  0.00    +0.000 C 
ATOM     13  OD1 ASP A   1       4.731  -1.322  -0.294  0.00  0.00    +0.000 OA
ATOM     14  OD2 ASP A   1       4.576   0.810   0.652  0.00  0.00    +0.000 OA
ENDBRANCH  11  12
ENDBRANCH   9  11
ENDBRANCH   7   9
BRANCH   6   5
ATOM      5  CA  LEU A   2      -1.584  -0.860  -0.828  0.00  0.00    +0.000 C 
BRANCH   5  15
ATOM     15  C   LEU A   2      -1.860  -1.564   0.630  0.00  0.00    +0.000 C 
ATOM     16  O   LEU A   2      -1.345  -1.028   1.605  0.00  0.00    +0.000 OA
ATOM     17  OXT LEU A   2      -2.750  -2.604   0.597  0.00  0.00    +0.000 OA
ENDBRANCH   5  15
BRANCH   5   4
ATOM      4  CB  LEU A   2      -1.976   0.659  -0.231  0.00  0.00    +0.000 C 
BRANCH   4   2
ATOM      1  CD1 LEU A   2      -3.949   1.791  -0.005  0.00  0.00    +0.000 C 
ATOM      2  CG  LEU A   2      -3.473   0.607  -0.044  0.00  0.00    +0.000 C 
ATOM      3  CD2 LEU A   2      -4.118  -0.239  -1.094  0.00  0.00    +0.000 C 
ENDBRANCH   4   2
ENDBRANCH   5   4
ENDBRANCH   6   5
TORSDOF 7
