REMARK  Name = 
REMARK  5 active torsions:
REMARK  status: ('A' for Active; 'I' for Inactive)
REMARK    1  A    between atoms: CA_2  and  CB_3
REMARK    2  A    between atoms: CA_2  and  C_7
REMARK    3  A    between atoms: CB_3  and  CG_4
REMARK    4  A    between atoms: N_9  and  CA_10
REMARK    5  A    between atoms: CA_10  and  C_11
REMARK                            x       y       z     vdW  Elec       q    Type
REMARK                         _______ _______ _______ _____ _____    ______ ____
ROOT
ATOM      7  C   ASP A   1      -0.014   0.361   0.201  0.00  0.00    +0.000 C 
ATOM      8  O   ASP A   1       0.099   1.609   0.053  0.00  0.00    +0.000 OA
ATOM      9  N   GLY A   2      -1.272  -0.284   0.078  0.00  0.00    +0.000 NA
ENDROOT
BRANCH   7   2
ATOM      1  N   ASP A   1       0.911  -1.732   0.473  0.00  0.00    +0.000 NA
ATOM      2  CA  ASP A   1       1.246  -0.456  -0.393  0.00  0.00    +0.000 C 
BRANCH   2   3
ATOM      3  CB  ASP A   1       2.234   0.145   0.779  0.00  0.00    +0.000 C 
BRANCH   3   4
ATOM      4  CG  ASP A   1       3.558   0.044   0.093  0.00  0.00    +0.000 C 
ATOM      5  OD1 ASP A   1       3.827   1.042  -0.643  0.00  0.00    +0.000 OA
ATOM      6  OD2 ASP A   1       3.814  -1.200  -0.493  0.00  0.00    +0.000 OA
ENDBRANCH   3   4
ENDBRANCH   2   3
ENDBRANCH   7   2
BRANCH   9  10
ATOM     10  CA  GLY A   2      -2.305   0.534  -0.538  0.00  0.00    +0.000 C 
BRANCH  10  11
ATOM     11  C   GLY A   2      -3.606   0.053  -0.053  0.00  0.00    +0.000 C 
ATOM     12  O   GLY A   2      -3.955  -1.139  -0.089  0.00  0.00    +0.000 OA
ATOM     13  OXT GLY A   2      -4.537   1.022   0.261  0.00  0.00    +0.000 OA
ENDBRANCH  10  11
ENDBRANCH   9  10
TORSDOF 5
