REMARK  Name = 
REMARK  7 active torsions:
REMARK  status: ('A' for Active; 'I' for Inactive)
REMARK    1  A    between atoms: CA_2  and  CB_3
REMARK    2  A    between atoms: CA_2  and  C_7
REMARK    3  A    between atoms: CB_3  and  CG_4
REMARK    4  A    between atoms: N_9  and  CA_10
REMARK    5  A    between atoms: CA_10  and  CB_11
REMARK    6  A    between atoms: CA_10  and  C_15
REMARK    7  A    between atoms: CB_11  and  CG_12
REMARK                            x       y       z     vdW  Elec       q    Type
REMARK                         _______ _______ _______ _____ _____    ______ ____
ROOT
ATOM      7  C   ASP A   1       0.398   0.551   0.779  0.00  0.00    +0.000 C 
ATOM      8  O   ASP A   1      -0.167   0.680   1.912  0.00  0.00    +0.000 OA
ATOM      9  N   ASP A   2      -0.036  -0.301  -0.214  0.00  0.00    +0.000 NA
ENDROOT
BRANCH   7   2
ATOM      1  N   ASP A   1       1.631   2.493   0.722  0.00  0.00    +0.000 NA
ATOM      2  CA  ASP A   1       1.936   0.964   0.997  0.00  0.00    +0.000 C 
BRANCH   2   3
ATOM      3  CB  ASP A   1       2.399   0.705  -0.561  0.00  0.00    +0.000 C 
BRANCH   3   4
ATOM      4  CG  ASP A   1       3.495  -0.314  -0.421  0.00  0.00    +0.000 C 
ATOM      5  OD1 ASP A   1       4.028  -0.579   0.668  0.00  0.00    +0.000 OA
ATOM      6  OD2 ASP A   1       4.165  -0.682  -1.591  0.00  0.00    +0.000 OA
ENDBRANCH   3   4
ENDBRANCH   2   3
ENDBRANCH   7   2
BRANCH   9  10
ATOM     10  CA  ASP A   2      -1.071  -1.349   0.361  0.00  0.00    +0.000 C 
BRANCH  10  15
ATOM     15  C   ASP A   2      -1.955  -1.414  -0.998  0.00  0.00    +0.000 C 
ATOM     16  O   ASP A   2      -1.560  -2.343  -1.773  0.00  0.00    +0.000 OA
ATOM     17  OXT ASP A   2      -3.275  -1.663  -0.579  0.00  0.00    +0.000 OA
ENDBRANCH  10  15
BRANCH  10  11
ATOM     11  CB  ASP A   2      -1.989  -0.183   1.065  0.00  0.00    +0.000 C 
BRANCH  11  12
ATOM     12  CG  ASP A   2      -2.492   0.711   0.084  0.00  0.00    +0.000 C 
ATOM     13  OD1 ASP A   2      -2.116   1.078  -1.057  0.00  0.00    +0.000 OA
ATOM     14  OD2 ASP A   2      -3.392   1.645   0.608  0.00  0.00    +0.000 OA
ENDBRANCH  11  12
ENDBRANCH  10  11
ENDBRANCH   9  10
TORSDOF 7
