REMARK  Name = 
REMARK  7 active torsions:
REMARK  status: ('A' for Active; 'I' for Inactive)
REMARK    1  A    between atoms: CG1_2  and  CB_3
REMARK    2  A    between atoms: CB_3  and  CA_5
REMARK    3  A    between atoms: CA_5  and  N_6
REMARK    4  A    between atoms: CA_5  and  C_15
REMARK    5  A    between atoms: C_7  and  CA_9
REMARK    6  A    between atoms: CA_9  and  CB_11
REMARK    7  A    between atoms: CB_11  and  CG_12
REMARK                            x       y       z     vdW  Elec       q    Type
REMARK                         _______ _______ _______ _____ _____    ______ ____
ROOT
ATOM      6  N   ILE A   2      -0.670   0.457  -0.444  0.00  0.00    +0.000 NA
ATOM      7  C   ASP A   1       0.555   0.755   0.206  0.00  0.00    +0.000 C 
ATOM      8  O   ASP A   1       0.513   1.335   1.262  0.00  0.00    +0.000 OA
ENDROOT
BRANCH   7   9
ATOM      9  CA  ASP A   1       1.871  -0.019  -0.293  0.00  0.00    +0.000 C 
ATOM     10  N   ASP A   1       2.359   1.214  -1.147  0.00  0.00    +0.000 NA
BRANCH   9  11
ATOM     11  CB  ASP A   1       2.817   0.436   0.978  0.00  0.00    +0.000 C 
BRANCH  11  12
ATOM     12  CG  ASP A   1       4.104  -0.305   0.766  0.00  0.00    +0.000 C 
ATOM     13  OD1 ASP A   1       4.026  -1.545   1.023  0.00  0.00    +0.000 OA
ATOM     14  OD2 ASP A   1       5.003   0.057  -0.225  0.00  0.00    +0.000 OA
ENDBRANCH  11  12
ENDBRANCH   9  11
ENDBRANCH   7   9
BRANCH   6   5
ATOM      5  CA  ILE A   2      -1.778  -0.087   0.532  0.00  0.00    +0.000 C 
BRANCH   5  15
ATOM     15  C   ILE A   2      -1.753  -1.576  -0.054  0.00  0.00    +0.000 C 
ATOM     16  O   ILE A   2      -1.302  -1.823  -1.151  0.00  0.00    +0.000 OA
ATOM     17  OXT ILE A   2      -1.559  -2.441   1.012  0.00  0.00    +0.000 OA
ENDBRANCH   5  15
BRANCH   5   3
ATOM      3  CB  ILE A   2      -3.076   0.363  -0.476  0.00  0.00    +0.000 C 
ATOM      4  CG2 ILE A   2      -4.060  -0.773   0.125  0.00  0.00    +0.000 C 
BRANCH   3   2
ATOM      1  CD1 ILE A   2      -3.443   2.503   0.146  0.00  0.00    +0.000 C 
ATOM      2  CG1 ILE A   2      -3.607   1.449   0.598  0.00  0.00    +0.000 C 
ENDBRANCH   3   2
ENDBRANCH   5   3
ENDBRANCH   6   5
TORSDOF 7
