REMARK  Name = 
REMARK  3 active torsions:
REMARK  status: ('A' for Active; 'I' for Inactive)
REMARK    1  A    between atoms: CA_2  and  C_3
REMARK    2  A    between atoms: CA_2  and  C_8
REMARK    3  A    between atoms: C_3  and  C_4
REMARK                            x       y       z     vdW  Elec       q    Type
REMARK                         _______ _______ _______ _____ _____    ______ ____
ROOT
ATOM      1  N   UNL     1      -2.200   1.166   0.991  0.00  0.00    +0.000 NA
ATOM      2  CA  UNL     1      -1.337   0.839  -0.289  0.00  0.00    +0.000 C 
ENDROOT
BRANCH   2   8
ATOM      8  C   UNL     1      -1.204  -0.730   0.073  0.00  0.00    +0.000 C 
ATOM      9  O   UNL     1      -2.287  -1.290   0.432  0.00  0.00    +0.000 OA
ATOM     10  OXT UNL     1      -0.728  -1.349  -1.097  0.00  0.00    +0.000 OA
ENDBRANCH   2   8
BRANCH   2   3
ATOM      3  C   UNL     1       0.045   1.247   0.504  0.00  0.00    +0.000 C 
BRANCH   3   4
ATOM      4  C   UNL     1       1.058   0.247   0.172  0.00  0.00    +0.000 C 
ATOM      5  O   UNL     1       1.213  -0.780   1.120  0.00  0.00    +0.000 OA
ATOM      6  N   UNL     1       2.084   0.549  -0.535  0.00  0.00    +0.000 NA
ATOM      7  O   UNL     1       3.356   0.101  -0.318  0.00  0.00    +0.000 OA
ENDBRANCH   3   4
ENDBRANCH   2   3
TORSDOF 3
