REMARK  Name = 
REMARK  4 active torsions:
REMARK  status: ('A' for Active; 'I' for Inactive)
REMARK    1  A    between atoms: CA_2  and  CB_3
REMARK    2  A    between atoms: CA_2  and  C_7
REMARK    3  A    between atoms: CB_3  and  CG_4
REMARK    4  A    between atoms: CA_13  and  C_14
REMARK                            x       y       z     vdW  Elec       q    Type
REMARK                         _______ _______ _______ _____ _____    ______ ____
ROOT
ATOM      7  C   ASP A   1       0.225   0.253  -0.204  0.00  0.00    +0.000 C 
ATOM      8  O   ASP A   1       0.432   1.386   0.226  0.00  0.00    +0.000 OA
ATOM      9  N   PRO A   2      -0.994  -0.446  -0.051  0.00  0.00    +0.000 N 
ATOM     10  CD  PRO A   2      -1.328  -1.803   0.175  0.00  0.00    +0.000 C 
ATOM     11  CG  PRO A   2      -2.689  -1.510   0.816  0.00  0.00    +0.000 C 
ATOM     12  CB  PRO A   2      -3.313  -0.923  -0.384  0.00  0.00    +0.000 C 
ATOM     13  CA  PRO A   2      -2.188   0.187  -0.882  0.00  0.00    +0.000 C 
ENDROOT
BRANCH  13  14
ATOM     14  C   PRO A   2      -2.502   1.258   0.307  0.00  0.00    +0.000 C 
ATOM     15  O   PRO A   2      -2.235   2.373  -0.250  0.00  0.00    +0.000 OA
ATOM     16  OXT PRO A   2      -3.763   1.242   0.842  0.00  0.00    +0.000 OA
ENDBRANCH  13  14
BRANCH   7   2
ATOM      1  N   ASP A   1       2.253   0.466  -1.339  0.00  0.00    +0.000 NA
ATOM      2  CA  ASP A   1       1.524  -0.673  -0.504  0.00  0.00    +0.000 C 
BRANCH   2   3
ATOM      3  CB  ASP A   1       2.298  -0.216   0.890  0.00  0.00    +0.000 C 
BRANCH   3   4
ATOM      4  CG  ASP A   1       3.722  -0.438   0.564  0.00  0.00    +0.000 C 
ATOM      5  OD1 ASP A   1       4.522   0.525   0.351  0.00  0.00    +0.000 OA
ATOM      6  OD2 ASP A   1       4.035  -1.681   0.035  0.00  0.00    +0.000 OA
ENDBRANCH   3   4
ENDBRANCH   2   3
ENDBRANCH   7   2
TORSDOF 4
