REMARK  Name = 
REMARK  7 active torsions:
REMARK  status: ('A' for Active; 'I' for Inactive)
REMARK    1  A    between atoms: CA_2  and  CB_3
REMARK    2  A    between atoms: CA_2  and  C_7
REMARK    3  A    between atoms: CB_3  and  CG_4
REMARK    4  A    between atoms: N_9  and  CA_10
REMARK    5  A    between atoms: CA_10  and  CB_11
REMARK    6  A    between atoms: CA_10  and  C_21
REMARK    7  A    between atoms: CB_11  and  CG_12
REMARK                            x       y       z     vdW  Elec       q    Type
REMARK                         _______ _______ _______ _____ _____    ______ ____
ROOT
ATOM     10  CA  TRP A   2      -0.509  -1.119   1.093  0.00  0.00    +0.000 C 
ENDROOT
BRANCH  10   9
ATOM      7  C   ASP A   1       2.000  -0.922   0.724  0.00  0.00    +0.000 C 
ATOM      8  O   ASP A   1       1.990   0.278   1.042  0.00  0.00    +0.000 OA
ATOM      9  N   TRP A   2       0.974  -1.548   1.518  0.00  0.00    +0.000 NA
BRANCH   7   2
ATOM      1  N   ASP A   1       3.613  -1.905  -0.625  0.00  0.00    +0.000 NA
ATOM      2  CA  ASP A   1       3.396  -1.741   0.955  0.00  0.00    +0.000 C 
BRANCH   2   3
ATOM      3  CB  ASP A   1       4.355  -0.385   1.091  0.00  0.00    +0.000 C 
BRANCH   3   4
ATOM      4  CG  ASP A   1       4.660   0.144  -0.205  0.00  0.00    +0.000 C 
ATOM      5  OD1 ASP A   1       3.860   0.502  -1.122  0.00  0.00    +0.000 OA
ATOM      6  OD2 ASP A   1       5.859   0.869  -0.241  0.00  0.00    +0.000 OA
ENDBRANCH   3   4
ENDBRANCH   2   3
ENDBRANCH   7   2
ENDBRANCH  10   9
BRANCH  10  21
ATOM     21  C   TRP A   2      -0.269  -1.604  -0.451  0.00  0.00    +0.000 C 
ATOM     22  O   TRP A   2       0.235  -0.842  -1.242  0.00  0.00    +0.000 OA
ATOM     23  OXT TRP A   2      -0.597  -2.919  -0.668  0.00  0.00    +0.000 OA
ENDBRANCH  10  21
BRANCH  10  11
ATOM     11  CB  TRP A   2      -0.118   0.480   0.822  0.00  0.00    +0.000 C 
BRANCH  11  12
ATOM     12  CG  TRP A   2      -1.360   1.175   0.553  0.00  0.00    +0.000 A 
ATOM     13  CD1 TRP A   2      -1.392   2.565   0.599  0.00  0.00    +0.000 A 
ATOM     14  NE1 TRP A   2      -2.670   2.995   0.473  0.00  0.00    +0.000 NA
ATOM     15  CE2 TRP A   2      -3.476   1.920   0.340  0.00  0.00    +0.000 A 
ATOM     16  CZ2 TRP A   2      -4.833   1.698   0.408  0.00  0.00    +0.000 A 
ATOM     17  CH2 TRP A   2      -5.375   0.447   0.153  0.00  0.00    +0.000 A 
ATOM     18  CZ3 TRP A   2      -4.493  -0.503  -0.327  0.00  0.00    +0.000 A 
ATOM     19  CE3 TRP A   2      -3.194  -0.410   0.141  0.00  0.00    +0.000 A 
ATOM     20  CD2 TRP A   2      -2.656   0.824   0.339  0.00  0.00    +0.000 A 
ENDBRANCH  11  12
ENDBRANCH  10  11
TORSDOF 7
