REMARK  Name = 
REMARK  7 active torsions:
REMARK  status: ('A' for Active; 'I' for Inactive)
REMARK    1  A    between atoms: CA_2  and  CB_3
REMARK    2  A    between atoms: CA_2  and  C_7
REMARK    3  A    between atoms: CB_3  and  CG_4
REMARK    4  A    between atoms: N_9  and  CA_10
REMARK    5  A    between atoms: CA_10  and  CB_11
REMARK    6  A    between atoms: CA_10  and  C_15
REMARK    7  A    between atoms: CB_11  and  CG_12
REMARK                            x       y       z     vdW  Elec       q    Type
REMARK                         _______ _______ _______ _____ _____    ______ ____
ROOT
ATOM      7  C   ASP A   1       0.526   0.043   0.726  0.00  0.00    +0.000 C 
ATOM      8  O   ASP A   1      -0.143  -0.410   1.685  0.00  0.00    +0.000 OA
ATOM      9  N   ASP A   2       0.131  -0.352  -0.497  0.00  0.00    +0.000 NA
ENDROOT
BRANCH   7   2
ATOM      1  N   ASP A   1       1.420   2.123   1.097  0.00  0.00    +0.000 NA
ATOM      2  CA  ASP A   1       1.964   0.641   1.078  0.00  0.00    +0.000 C 
BRANCH   2   3
ATOM      3  CB  ASP A   1       2.462   0.783  -0.484  0.00  0.00    +0.000 C 
BRANCH   3   4
ATOM      4  CG  ASP A   1       3.649  -0.101  -0.530  0.00  0.00    +0.000 C 
ATOM      5  OD1 ASP A   1       4.052  -0.785   0.456  0.00  0.00    +0.000 OA
ATOM      6  OD2 ASP A   1       4.241  -0.395  -1.741  0.00  0.00    +0.000 OA
ENDBRANCH   3   4
ENDBRANCH   2   3
ENDBRANCH   7   2
BRANCH   9  10
ATOM     10  CA  ASP A   2      -1.387  -0.306  -0.902  0.00  0.00    +0.000 C 
BRANCH  10  15
ATOM     15  C   ASP A   2      -1.597  -1.870  -0.551  0.00  0.00    +0.000 C 
ATOM     16  O   ASP A   2      -1.333  -2.567  -1.580  0.00  0.00    +0.000 OA
ATOM     17  OXT ASP A   2      -2.845  -2.194  -0.008  0.00  0.00    +0.000 OA
ENDBRANCH  10  15
BRANCH  10  11
ATOM     11  CB  ASP A   2      -1.955   0.189   0.562  0.00  0.00    +0.000 C 
BRANCH  11  12
ATOM     12  CG  ASP A   2      -2.740   1.399   0.290  0.00  0.00    +0.000 C 
ATOM     13  OD1 ASP A   2      -2.793   1.974  -0.832  0.00  0.00    +0.000 OA
ATOM     14  OD2 ASP A   2      -3.649   1.827   1.231  0.00  0.00    +0.000 OA
ENDBRANCH  11  12
ENDBRANCH  10  11
ENDBRANCH   9  10
TORSDOF 7
