REMARK  Name = 
REMARK  7 active torsions:
REMARK  status: ('A' for Active; 'I' for Inactive)
REMARK    1  A    between atoms: CA_2  and  CB_3
REMARK    2  A    between atoms: CA_2  and  C_7
REMARK    3  A    between atoms: CB_3  and  CG_4
REMARK    4  A    between atoms: N_9  and  CA_10
REMARK    5  A    between atoms: CA_10  and  CB_11
REMARK    6  A    between atoms: CA_10  and  C_18
REMARK    7  A    between atoms: CB_11  and  CG_12
REMARK                            x       y       z     vdW  Elec       q    Type
REMARK                         _______ _______ _______ _____ _____    ______ ____
ROOT
ATOM     10  CA  PHE A   2       0.815  -0.609  -0.285  0.00  0.00    +0.000 C 
ENDROOT
BRANCH  10   9
ATOM      7  C   ASP A   1      -1.749  -0.509  -0.117  0.00  0.00    +0.000 C 
ATOM      8  O   ASP A   1      -1.769  -1.697   0.288  0.00  0.00    +0.000 OA
ATOM      9  N   PHE A   2      -0.526   0.116   0.120  0.00  0.00    +0.000 NA
BRANCH   7   2
ATOM      1  N   ASP A   1      -3.690  -1.264  -1.209  0.00  0.00    +0.000 NA
ATOM      2  CA  ASP A   1      -2.506  -0.264  -1.527  0.00  0.00    +0.000 C 
BRANCH   2   3
ATOM      3  CB  ASP A   1      -3.361   1.025  -0.994  0.00  0.00    +0.000 C 
BRANCH   3   4
ATOM      4  CG  ASP A   1      -3.796   0.809   0.361  0.00  0.00    +0.000 C 
ATOM      5  OD1 ASP A   1      -4.233   1.881   0.888  0.00  0.00    +0.000 OA
ATOM      6  OD2 ASP A   1      -4.179  -0.335   1.008  0.00  0.00    +0.000 OA
ENDBRANCH   3   4
ENDBRANCH   2   3
ENDBRANCH   7   2
ENDBRANCH  10   9
BRANCH  10  18
ATOM     18  C   PHE A   2       0.383  -2.042   0.309  0.00  0.00    +0.000 C 
ATOM     19  O   PHE A   2       0.591  -2.867  -0.640  0.00  0.00    +0.000 OA
ATOM     20  OXT PHE A   2       0.610  -2.399   1.577  0.00  0.00    +0.000 OA
ENDBRANCH  10  18
BRANCH  10  11
ATOM     11  CB  PHE A   2       1.591  -0.113   1.080  0.00  0.00    +0.000 C 
BRANCH  11  12
ATOM     12  CG  PHE A   2       2.728   0.644   0.482  0.00  0.00    +0.000 A 
ATOM     13  CD1 PHE A   2       3.693   0.005  -0.285  0.00  0.00    +0.000 A 
ATOM     14  CE1 PHE A   2       4.565   0.746  -1.043  0.00  0.00    +0.000 A 
ATOM     15  CZ  PHE A   2       4.573   2.110  -0.919  0.00  0.00    +0.000 A 
ATOM     16  CE2 PHE A   2       3.636   2.737  -0.116  0.00  0.00    +0.000 A 
ATOM     17  CD2 PHE A   2       2.627   2.026   0.513  0.00  0.00    +0.000 A 
ENDBRANCH  11  12
ENDBRANCH  10  11
TORSDOF 7
