REMARK  Name = 
REMARK  5 active torsions:
REMARK  status: ('A' for Active; 'I' for Inactive)
REMARK    1  A    between atoms: CA_2  and  N_3
REMARK    2  A    between atoms: CA_2  and  C_12
REMARK    3  A    between atoms: C_4  and  CA_6
REMARK    4  A    between atoms: CA_6  and  CB_8
REMARK    5  A    between atoms: CB_8  and  CG_9
REMARK                            x       y       z     vdW  Elec       q    Type
REMARK                         _______ _______ _______ _____ _____    ______ ____
ROOT
ATOM      3  N   ALA A   2      -1.035  -0.636  -0.416  0.00  0.00    +0.000 NA
ATOM      4  C   ASP A   1       0.033  -0.287   0.454  0.00  0.00    +0.000 C 
ATOM      5  O   ASP A   1      -0.309   0.304   1.527  0.00  0.00    +0.000 OA
ENDROOT
BRANCH   3   2
ATOM      1  CB  ALA A   2      -2.741  -2.224  -0.827  0.00  0.00    +0.000 C 
ATOM      2  CA  ALA A   2      -2.119  -1.396   0.492  0.00  0.00    +0.000 C 
BRANCH   2  12
ATOM     12  C   ALA A   2      -3.217  -0.186   0.330  0.00  0.00    +0.000 C 
ATOM     13  O   ALA A   2      -3.382   0.245  -0.811  0.00  0.00    +0.000 OA
ATOM     14  OXT ALA A   2      -3.374   0.499   1.514  0.00  0.00    +0.000 OA
ENDBRANCH   2  12
ENDBRANCH   3   2
BRANCH   4   6
ATOM      6  CA  ASP A   1       1.165   0.679  -0.238  0.00  0.00    +0.000 C 
ATOM      7  N   ASP A   1       1.307  -0.280  -1.519  0.00  0.00    +0.000 NA
BRANCH   6   8
ATOM      8  CB  ASP A   1       2.399  -0.141   0.547  0.00  0.00    +0.000 C 
BRANCH   8   9
ATOM      9  CG  ASP A   1       3.552   0.784   0.350  0.00  0.00    +0.000 C 
ATOM     10  OD1 ASP A   1       3.622   1.843   1.004  0.00  0.00    +0.000 OA
ATOM     11  OD2 ASP A   1       4.098   0.797  -0.921  0.00  0.00    +0.000 OA
ENDBRANCH   8   9
ENDBRANCH   6   8
ENDBRANCH   4   6
TORSDOF 5
