REMARK  Name = 
REMARK  6 active torsions:
REMARK  status: ('A' for Active; 'I' for Inactive)
REMARK    1  A    between atoms: CB_2  and  CA_4
REMARK    2  A    between atoms: CA_4  and  N_5
REMARK    3  A    between atoms: CA_4  and  C_14
REMARK    4  A    between atoms: C_6  and  CA_8
REMARK    5  A    between atoms: CA_8  and  CB_10
REMARK    6  A    between atoms: CB_10  and  CG_11
REMARK                            x       y       z     vdW  Elec       q    Type
REMARK                         _______ _______ _______ _____ _____    ______ ____
ROOT
ATOM      5  N   VAL A   2      -0.120   0.398  -0.234  0.00  0.00    +0.000 NA
ATOM      6  C   ASP A   1       0.625  -0.781  -0.202  0.00  0.00    +0.000 C 
ATOM      7  O   ASP A   1      -0.019  -1.772  -0.465  0.00  0.00    +0.000 OA
ENDROOT
BRANCH   6   8
ATOM      8  CA  ASP A   1       1.847  -0.890   0.869  0.00  0.00    +0.000 C 
ATOM      9  N   ASP A   1       2.154  -2.427   0.560  0.00  0.00    +0.000 NA
BRANCH   8  10
ATOM     10  CB  ASP A   1       2.952  -0.403  -0.277  0.00  0.00    +0.000 C 
BRANCH  10  11
ATOM     11  CG  ASP A   1       3.178   0.966   0.218  0.00  0.00    +0.000 C 
ATOM     12  OD1 ASP A   1       2.671   1.925  -0.432  0.00  0.00    +0.000 OA
ATOM     13  OD2 ASP A   1       3.471   1.226   1.531  0.00  0.00    +0.000 OA
ENDBRANCH  10  11
ENDBRANCH   8  10
ENDBRANCH   6   8
BRANCH   5   4
ATOM      4  CA  VAL A   2      -1.381   0.496   0.740  0.00  0.00    +0.000 C 
BRANCH   4   2
ATOM      1  CG1 VAL A   2      -3.218   2.206   0.437  0.00  0.00    +0.000 C 
ATOM      2  CB  VAL A   2      -2.154   1.523  -0.316  0.00  0.00    +0.000 C 
ATOM      3  CG2 VAL A   2      -2.498   0.821  -1.541  0.00  0.00    +0.000 C 
ENDBRANCH   4   2
BRANCH   4  14
ATOM     14  C   VAL A   2      -2.116  -0.873   0.211  0.00  0.00    +0.000 C 
ATOM     15  O   VAL A   2      -3.379  -0.660   0.211  0.00  0.00    +0.000 OA
ATOM     16  OXT VAL A   2      -2.012  -1.756   1.321  0.00  0.00    +0.000 OA
ENDBRANCH   4  14
ENDBRANCH   5   4
TORSDOF 6
