REMARK  Name = 
REMARK  7 active torsions:
REMARK  status: ('A' for Active; 'I' for Inactive)
REMARK    1  A    between atoms: CA_2  and  CB_3
REMARK    2  A    between atoms: CA_2  and  C_7
REMARK    3  A    between atoms: CB_3  and  CG_4
REMARK    4  A    between atoms: N_9  and  CA_10
REMARK    5  A    between atoms: CA_10  and  CB_11
REMARK    6  A    between atoms: CA_10  and  C_15
REMARK    7  A    between atoms: CB_11  and  CG_12
REMARK                            x       y       z     vdW  Elec       q    Type
REMARK                         _______ _______ _______ _____ _____    ______ ____
ROOT
ATOM      7  C   ASP A   1       0.825  -0.785  -0.181  0.00  0.00    +0.000 C 
ATOM      8  O   ASP A   1       1.269  -0.944  -1.328  0.00  0.00    +0.000 OA
ATOM      9  N   ASP A   2      -0.283   0.047   0.049  0.00  0.00    +0.000 NA
ENDROOT
BRANCH   7   2
ATOM      1  N   ASP A   1       2.865  -1.627   0.536  0.00  0.00    +0.000 NA
ATOM      2  CA  ASP A   1       1.926  -0.410   0.969  0.00  0.00    +0.000 C 
BRANCH   2   3
ATOM      3  CB  ASP A   1       2.665   0.708  -0.016  0.00  0.00    +0.000 C 
BRANCH   3   4
ATOM      4  CG  ASP A   1       4.082   0.379  -0.095  0.00  0.00    +0.000 C 
ATOM      5  OD1 ASP A   1       4.452  -0.527  -0.910  0.00  0.00    +0.000 OA
ATOM      6  OD2 ASP A   1       4.859   1.532  -0.317  0.00  0.00    +0.000 OA
ENDBRANCH   3   4
ENDBRANCH   2   3
ENDBRANCH   7   2
BRANCH   9  10
ATOM     10  CA  ASP A   2      -1.449  -0.224  -1.005  0.00  0.00    +0.000 C 
BRANCH  10  15
ATOM     15  C   ASP A   2      -2.440  -0.836   0.148  0.00  0.00    +0.000 C 
ATOM     16  O   ASP A   2      -1.902  -1.835   0.726  0.00  0.00    +0.000 OA
ATOM     17  OXT ASP A   2      -3.661  -1.174  -0.455  0.00  0.00    +0.000 OA
ENDBRANCH  10  15
BRANCH  10  11
ATOM     11  CB  ASP A   2      -1.969   1.347  -0.839  0.00  0.00    +0.000 C 
BRANCH  11  12
ATOM     12  CG  ASP A   2      -3.365   1.320  -0.463  0.00  0.00    +0.000 C 
ATOM     13  OD1 ASP A   2      -4.286   1.593  -1.285  0.00  0.00    +0.000 OA
ATOM     14  OD2 ASP A   2      -3.587   1.435   0.916  0.00  0.00    +0.000 OA
ENDBRANCH  11  12
ENDBRANCH  10  11
ENDBRANCH   9  10
TORSDOF 7
