REMARK  Name = 
REMARK  7 active torsions:
REMARK  status: ('A' for Active; 'I' for Inactive)
REMARK    1  A    between atoms: CA_2  and  CB_3
REMARK    2  A    between atoms: CA_2  and  C_7
REMARK    3  A    between atoms: CB_3  and  CG_4
REMARK    4  A    between atoms: N_9  and  CA_10
REMARK    5  A    between atoms: CA_10  and  CB_11
REMARK    6  A    between atoms: CA_10  and  C_17
REMARK    7  A    between atoms: CB_11  and  CG_12
REMARK                            x       y       z     vdW  Elec       q    Type
REMARK                         _______ _______ _______ _____ _____    ______ ____
ROOT
ATOM     10  CA  HIS A   2       0.527   0.202  -1.116  0.00  0.00    +0.000 C 
ENDROOT
BRANCH  10   9
ATOM      7  C   ASP A   1      -1.421  -1.138  -0.161  0.00  0.00    +0.000 C 
ATOM      8  O   ASP A   1      -0.763  -2.175  -0.297  0.00  0.00    +0.000 OA
ATOM      9  N   HIS A   2      -0.735   0.094  -0.179  0.00  0.00    +0.000 NA
BRANCH   7   2
ATOM      1  N   ASP A   1      -3.210  -2.624  -0.414  0.00  0.00    +0.000 NA
ATOM      2  CA  ASP A   1      -2.911  -1.121  -0.779  0.00  0.00    +0.000 C 
BRANCH   2   3
ATOM      3  CB  ASP A   1      -3.563  -0.600   0.638  0.00  0.00    +0.000 C 
BRANCH   3   4
ATOM      4  CG  ASP A   1      -3.986   0.777   0.346  0.00  0.00    +0.000 C 
ATOM      5  OD1 ASP A   1      -3.739   1.391  -0.719  0.00  0.00    +0.000 OA
ATOM      6  OD2 ASP A   1      -4.936   1.374   1.179  0.00  0.00    +0.000 OA
ENDBRANCH   3   4
ENDBRANCH   2   3
ENDBRANCH   7   2
ENDBRANCH  10   9
BRANCH  10  17
ATOM     17  C   HIS A   2       1.330  -0.939  -0.312  0.00  0.00    +0.000 C 
ATOM     18  O   HIS A   2       1.474  -0.835   0.893  0.00  0.00    +0.000 OA
ATOM     19  OXT HIS A   2       1.904  -1.886  -1.145  0.00  0.00    +0.000 OA
ENDBRANCH  10  17
BRANCH  10  11
ATOM     11  CB  HIS A   2       1.156   1.437  -0.228  0.00  0.00    +0.000 C 
BRANCH  11  12
ATOM     12  CG  HIS A   2       2.609   1.223  -0.180  0.00  0.00    +0.000 A 
ATOM     13  CD2 HIS A   2       3.373   1.639   0.905  0.00  0.00    +0.000 A 
ATOM     14  NE2 HIS A   2       4.656   1.369   0.656  0.00  0.00    +0.000 NA
ATOM     15  CE1 HIS A   2       4.740   0.942  -0.607  0.00  0.00    +0.000 A 
ATOM     16  ND1 HIS A   2       3.493   0.868  -1.116  0.00  0.00    +0.000 NA
ENDBRANCH  11  12
ENDBRANCH  10  11
TORSDOF 7
