REMARK  Name = 
REMARK  9 active torsions:
REMARK  status: ('A' for Active; 'I' for Inactive)
REMARK    1  A    between atoms: NE_4  and  CD_5
REMARK    2  A    between atoms: CD_5  and  CG_6
REMARK    3  A    between atoms: CG_6  and  CB_7
REMARK    4  A    between atoms: CB_7  and  CA_8
REMARK    5  A    between atoms: CA_8  and  N_9
REMARK    6  A    between atoms: CA_8  and  C_18
REMARK    7  A    between atoms: C_10  and  CA_12
REMARK    8  A    between atoms: CA_12  and  CB_14
REMARK    9  A    between atoms: CB_14  and  CG_15
REMARK                            x       y       z     vdW  Elec       q    Type
REMARK                         _______ _______ _______ _____ _____    ______ ____
ROOT
ATOM      8  CA  ARG A   2      -0.601   0.053   0.642  0.00  0.00    +0.000 C 
ENDROOT
BRANCH   8   9
ATOM      9  N   ARG A   2       0.939  -0.056   0.390  0.00  0.00    +0.000 NA
ATOM     10  C   ASP A   1       1.594   0.721  -0.540  0.00  0.00    +0.000 C 
ATOM     11  O   ASP A   1       0.916   1.089  -1.548  0.00  0.00    +0.000 OA
BRANCH  10  12
ATOM     12  CA  ASP A   1       2.985  -0.001  -0.928  0.00  0.00    +0.000 C 
ATOM     13  N   ASP A   1       3.483   1.231  -1.767  0.00  0.00    +0.000 NA
BRANCH  12  14
ATOM     14  CB  ASP A   1       3.728   0.546   0.427  0.00  0.00    +0.000 C 
BRANCH  14  15
ATOM     15  CG  ASP A   1       5.038  -0.152   0.357  0.00  0.00    +0.000 C 
ATOM     16  OD1 ASP A   1       5.794  -0.206   1.374  0.00  0.00    +0.000 OA
ATOM     17  OD2 ASP A   1       5.569  -0.679  -0.810  0.00  0.00    +0.000 OA
ENDBRANCH  14  15
ENDBRANCH  12  14
ENDBRANCH  10  12
ENDBRANCH   8   9
BRANCH   8  18
ATOM     18  C   ARG A   2      -0.833  -1.508   0.322  0.00  0.00    +0.000 C 
ATOM     19  O   ARG A   2      -1.797  -2.041   0.896  0.00  0.00    +0.000 OA
ATOM     20  OXT ARG A   2      -0.253  -2.050  -0.782  0.00  0.00    +0.000 OA
ENDBRANCH   8  18
BRANCH   8   7
ATOM      7  CB  ARG A   2      -0.997   0.495  -0.889  0.00  0.00    +0.000 C 
BRANCH   7   6
ATOM      6  CG  ARG A   2      -2.492   0.627  -0.817  0.00  0.00    +0.000 C 
BRANCH   6   5
ATOM      5  CD  ARG A   2      -2.913   1.451   0.379  0.00  0.00    +0.000 C 
BRANCH   5   4
ATOM      1  NH1 ARG A   2      -4.711  -0.471   0.411  0.00  0.00    +0.000 NA
ATOM      2  CZ  ARG A   2      -4.976   0.151   0.744  0.00  0.00    +0.000 C 
ATOM      3  NH2 ARG A   2      -6.106   0.097   1.636  0.00  0.00    +0.000 NA
ATOM      4  NE  ARG A   2      -4.369   1.435   0.503  0.00  0.00    +0.000 NA
ENDBRANCH   5   4
ENDBRANCH   6   5
ENDBRANCH   7   6
ENDBRANCH   8   7
TORSDOF 9
