REMARK  Name = 
REMARK  5 active torsions:
REMARK  status: ('A' for Active; 'I' for Inactive)
REMARK    1  A    between atoms: CA_2  and  CB_3
REMARK    2  A    between atoms: CA_2  and  C_7
REMARK    3  A    between atoms: CB_3  and  CG_4
REMARK    4  A    between atoms: N_9  and  CA_10
REMARK    5  A    between atoms: CA_10  and  C_11
REMARK                            x       y       z     vdW  Elec       q    Type
REMARK                         _______ _______ _______ _____ _____    ______ ____
ROOT
ATOM      7  C   ASP A   1       0.087   0.059  -0.200  0.00  0.00    +0.000 C 
ATOM      8  O   ASP A   1       0.667   1.007   0.411  0.00  0.00    +0.000 OA
ATOM      9  N   GLY A   2       1.018  -0.825  -0.842  0.00  0.00    +0.000 NA
ENDROOT
BRANCH   7   2
ATOM      1  N   ASP A   1      -1.629   0.410   1.319  0.00  0.00    +0.000 NA
ATOM      2  CA  ASP A   1      -0.879  -0.845   0.730  0.00  0.00    +0.000 C 
BRANCH   2   3
ATOM      3  CB  ASP A   1      -1.930  -1.093  -0.504  0.00  0.00    +0.000 C 
BRANCH   3   4
ATOM      4  CG  ASP A   1      -3.093  -0.256  -0.384  0.00  0.00    +0.000 C 
ATOM      5  OD1 ASP A   1      -2.991   0.936  -0.812  0.00  0.00    +0.000 OA
ATOM      6  OD2 ASP A   1      -4.153  -0.436   0.512  0.00  0.00    +0.000 OA
ENDBRANCH   3   4
ENDBRANCH   2   3
ENDBRANCH   7   2
BRANCH   9  10
ATOM     10  CA  GLY A   2       2.330  -0.451  -1.265  0.00  0.00    +0.000 C 
BRANCH  10  11
ATOM     11  C   GLY A   2       3.108   0.318  -0.283  0.00  0.00    +0.000 C 
ATOM     12  O   GLY A   2       3.441   1.503  -0.592  0.00  0.00    +0.000 OA
ATOM     13  OXT GLY A   2       4.024  -0.327   0.556  0.00  0.00    +0.000 OA
ENDBRANCH  10  11
ENDBRANCH   9  10
TORSDOF 5
