REMARK  Name = 
REMARK  8 active torsions:
REMARK  status: ('A' for Active; 'I' for Inactive)
REMARK    1  A    between atoms: CD_2  and  CG_4
REMARK    2  A    between atoms: CG_4  and  CB_5
REMARK    3  A    between atoms: CB_5  and  CA_6
REMARK    4  A    between atoms: CA_6  and  N_7
REMARK    5  A    between atoms: CA_6  and  C_16
REMARK    6  A    between atoms: C_8  and  CA_10
REMARK    7  A    between atoms: CA_10  and  CB_12
REMARK    8  A    between atoms: CB_12  and  CG_13
REMARK                            x       y       z     vdW  Elec       q    Type
REMARK                         _______ _______ _______ _____ _____    ______ ____
ROOT
ATOM      6  CA  GLN A   2       1.492   0.186   0.676  0.00  0.00    +0.000 C 
ENDROOT
BRANCH   6   7
ATOM      7  N   GLN A   2       0.118  -0.354   1.211  0.00  0.00    +0.000 NA
ATOM      8  C   ASP A   1      -0.930  -0.671   0.342  0.00  0.00    +0.000 C 
ATOM      9  O   ASP A   1      -0.523  -1.327  -0.663  0.00  0.00    +0.000 OA
BRANCH   8  10
ATOM     10  CA  ASP A   1      -1.994  -1.444   1.289  0.00  0.00    +0.000 C 
ATOM     11  N   ASP A   1      -2.562  -2.402   0.172  0.00  0.00    +0.000 NA
BRANCH  10  12
ATOM     12  CB  ASP A   1      -3.188  -0.344   1.041  0.00  0.00    +0.000 C 
BRANCH  12  13
ATOM     13  CG  ASP A   1      -3.253  -0.086  -0.416  0.00  0.00    +0.000 C 
ATOM     14  OD1 ASP A   1      -4.003  -0.863  -1.088  0.00  0.00    +0.000 OA
ATOM     15  OD2 ASP A   1      -3.549   1.262  -0.678  0.00  0.00    +0.000 OA
ENDBRANCH  12  13
ENDBRANCH  10  12
ENDBRANCH   8  10
ENDBRANCH   6   7
BRANCH   6  16
ATOM     16  C   GLN A   2       0.834   1.538   0.096  0.00  0.00    +0.000 C 
ATOM     17  O   GLN A   2       0.012   1.480  -0.794  0.00  0.00    +0.000 OA
ATOM     18  OXT GLN A   2       1.334   2.692   0.666  0.00  0.00    +0.000 OA
ENDBRANCH   6  16
BRANCH   6   5
ATOM      5  CB  GLN A   2       1.440  -0.618  -0.755  0.00  0.00    +0.000 C 
BRANCH   5   4
ATOM      4  CG  GLN A   2       2.769  -0.614  -1.368  0.00  0.00    +0.000 C 
BRANCH   4   2
ATOM      1  NE2 GLN A   2       4.090   0.062  -0.221  0.00  0.00    +0.000 NA
ATOM      2  CD  GLN A   2       3.822   0.175  -0.665  0.00  0.00    +0.000 C 
ATOM      3  OE1 GLN A   2       4.091   1.327  -1.122  0.00  0.00    +0.000 OA
ENDBRANCH   4   2
ENDBRANCH   5   4
ENDBRANCH   6   5
TORSDOF 8
