REMARK  Name = 
REMARK  7 active torsions:
REMARK  status: ('A' for Active; 'I' for Inactive)
REMARK    1  A    between atoms: CG_2  and  CB_4
REMARK    2  A    between atoms: CB_4  and  CA_5
REMARK    3  A    between atoms: CA_5  and  N_6
REMARK    4  A    between atoms: CA_5  and  C_15
REMARK    5  A    between atoms: C_7  and  CA_9
REMARK    6  A    between atoms: CA_9  and  CB_11
REMARK    7  A    between atoms: CB_11  and  CG_12
REMARK                            x       y       z     vdW  Elec       q    Type
REMARK                         _______ _______ _______ _____ _____    ______ ____
ROOT
ATOM      6  N   LEU A   2      -0.497  -0.379  -0.392  0.00  0.00    +0.000 NA
ATOM      7  C   ASP A   1       0.668  -0.984   0.204  0.00  0.00    +0.000 C 
ATOM      8  O   ASP A   1       0.509  -2.154   0.500  0.00  0.00    +0.000 OA
ENDROOT
BRANCH   7   9
ATOM      9  CA  ASP A   1       1.981  -0.575  -0.692  0.00  0.00    +0.000 C 
ATOM     10  N   ASP A   1       2.785  -1.933  -0.383  0.00  0.00    +0.000 NA
BRANCH   9  11
ATOM     11  CB  ASP A   1       2.691   0.177   0.627  0.00  0.00    +0.000 C 
BRANCH  11  12
ATOM     12  CG  ASP A   1       3.223   1.454   0.052  0.00  0.00    +0.000 C 
ATOM     13  OD1 ASP A   1       4.036   1.402  -0.919  0.00  0.00    +0.000 OA
ATOM     14  OD2 ASP A   1       3.473   2.450   0.999  0.00  0.00    +0.000 OA
ENDBRANCH  11  12
ENDBRANCH   9  11
ENDBRANCH   7   9
BRANCH   6   5
ATOM      5  CA  LEU A   2      -1.452  -0.112   0.872  0.00  0.00    +0.000 C 
BRANCH   5  15
ATOM     15  C   LEU A   2      -1.882  -1.692   0.962  0.00  0.00    +0.000 C 
ATOM     16  O   LEU A   2      -1.963  -2.119   2.128  0.00  0.00    +0.000 OA
ATOM     17  OXT LEU A   2      -2.272  -2.292  -0.182  0.00  0.00    +0.000 OA
ENDBRANCH   5  15
BRANCH   5   4
ATOM      4  CB  LEU A   2      -2.749   0.267  -0.119  0.00  0.00    +0.000 C 
BRANCH   4   2
ATOM      1  CD1 LEU A   2      -2.183   2.281   1.230  0.00  0.00    +0.000 C 
ATOM      2  CG  LEU A   2      -3.099   1.680   0.247  0.00  0.00    +0.000 C 
ATOM      3  CD2 LEU A   2      -3.267   2.529  -0.975  0.00  0.00    +0.000 C 
ENDBRANCH   4   2
ENDBRANCH   5   4
ENDBRANCH   6   5
TORSDOF 7
