REMARK  Name = 
REMARK  7 active torsions:
REMARK  status: ('A' for Active; 'I' for Inactive)
REMARK    1  A    between atoms: CA_2  and  CB_3
REMARK    2  A    between atoms: CA_2  and  C_7
REMARK    3  A    between atoms: CB_3  and  CG_4
REMARK    4  A    between atoms: N_9  and  CA_10
REMARK    5  A    between atoms: CA_10  and  CB_11
REMARK    6  A    between atoms: CA_10  and  C_18
REMARK    7  A    between atoms: CB_11  and  CG_12
REMARK                            x       y       z     vdW  Elec       q    Type
REMARK                         _______ _______ _______ _____ _____    ______ ____
ROOT
ATOM     10  CA  PHE A   2      -0.368   0.963  -0.821  0.00  0.00    +0.000 C 
ENDROOT
BRANCH  10   9
ATOM      7  C   ASP A   1       1.379  -0.516   0.087  0.00  0.00    +0.000 C 
ATOM      8  O   ASP A   1       1.794  -0.667  -1.063  0.00  0.00    +0.000 OA
ATOM      9  N   PHE A   2       0.102   0.053   0.424  0.00  0.00    +0.000 NA
BRANCH   7   2
ATOM      1  N   ASP A   1       3.413  -1.525   0.703  0.00  0.00    +0.000 NA
ATOM      2  CA  ASP A   1       2.533  -0.289   1.231  0.00  0.00    +0.000 C 
BRANCH   2   3
ATOM      3  CB  ASP A   1       3.407   0.787   0.286  0.00  0.00    +0.000 C 
BRANCH   3   4
ATOM      4  CG  ASP A   1       4.797   0.607   0.724  0.00  0.00    +0.000 C 
ATOM      5  OD1 ASP A   1       5.676   0.466  -0.175  0.00  0.00    +0.000 OA
ATOM      6  OD2 ASP A   1       5.220   0.855   2.007  0.00  0.00    +0.000 OA
ENDBRANCH   3   4
ENDBRANCH   2   3
ENDBRANCH   7   2
ENDBRANCH  10   9
BRANCH  10  18
ATOM     18  C   PHE A   2      -1.092  -0.262  -1.644  0.00  0.00    +0.000 C 
ATOM     19  O   PHE A   2      -0.980  -1.393  -1.196  0.00  0.00    +0.000 OA
ATOM     20  OXT PHE A   2      -0.678  -0.122  -2.977  0.00  0.00    +0.000 OA
ENDBRANCH  10  18
BRANCH  10  11
ATOM     11  CB  PHE A   2      -1.764   1.445  -0.035  0.00  0.00    +0.000 C 
BRANCH  11  12
ATOM     12  CG  PHE A   2      -2.606   0.263   0.136  0.00  0.00    +0.000 A 
ATOM     13  CD1 PHE A   2      -3.009  -0.098   1.418  0.00  0.00    +0.000 A 
ATOM     14  CE1 PHE A   2      -4.296  -0.549   1.685  0.00  0.00    +0.000 A 
ATOM     15  CZ  PHE A   2      -5.198  -0.728   0.658  0.00  0.00    +0.000 A 
ATOM     16  CE2 PHE A   2      -4.707  -0.690  -0.634  0.00  0.00    +0.000 A 
ATOM     17  CD2 PHE A   2      -3.622   0.155  -0.814  0.00  0.00    +0.000 A 
ENDBRANCH  11  12
ENDBRANCH  10  11
TORSDOF 7
