REMARK  Name = 
REMARK  7 active torsions:
REMARK  status: ('A' for Active; 'I' for Inactive)
REMARK    1  A    between atoms: O_2  and  C_3
REMARK    2  A    between atoms: C_5  and  C_6
REMARK    3  A    between atoms: C_7  and  C_8
REMARK    4  A    between atoms: C_8  and  C_10
REMARK    5  A    between atoms: C_11  and  C_13
REMARK    6  A    between atoms: C_14  and  C_15
REMARK    7  A    between atoms: C_20  and  O_21
REMARK                            x       y       z     vdW  Elec       q    Type
REMARK                         _______ _______ _______ _____ _____    ______ ____
ROOT
ATOM     10  C   UNL     1       0.339  -0.767  -1.237  0.00  0.00    +0.000 C 
ATOM     11  C   UNL     1       0.632   0.440  -0.796  0.00  0.00    +0.000 C 
ATOM     12  O   UNL     1      -0.109   0.897   0.299  0.00  0.00    +0.000 OA
ENDROOT
BRANCH  10   8
ATOM      8  C   UNL     1      -0.733  -1.595  -0.726  0.00  0.00    +0.000 C 
ATOM      9  O   UNL     1      -0.790  -1.840   0.511  0.00  0.00    +0.000 OA
BRANCH   8   7
ATOM      6  C   UNL     1      -2.660  -0.414  -1.656  0.00  0.00    +0.000 C 
ATOM      7  C   UNL     1      -2.021  -1.538  -1.422  0.00  0.00    +0.000 C 
BRANCH   6   5
ATOM      3  C   UNL     1      -5.845  -0.378   0.144  0.00  0.00    +0.000 A 
ATOM      4  C   UNL     1      -4.872  -0.987  -0.640  0.00  0.00    +0.000 A 
ATOM      5  C   UNL     1      -4.110  -0.268  -1.545  0.00  0.00    +0.000 A 
ATOM     24  C   UNL     1      -4.662   0.930  -1.980  0.00  0.00    +0.000 A 
ATOM     25  C   UNL     1      -5.840   1.413  -1.420  0.00  0.00    +0.000 A 
ATOM     26  C   UNL     1      -6.297   0.885  -0.218  0.00  0.00    +0.000 A 
ATOM     27  O   UNL     1      -6.834   1.715   0.770  0.00  0.00    +0.000 OA
BRANCH   3   2
ATOM      1  C   UNL     1      -5.726  -0.606   2.573  0.00  0.00    +0.000 C 
ATOM      2  O   UNL     1      -6.308  -0.953   1.330  0.00  0.00    +0.000 OA
ENDBRANCH   3   2
ENDBRANCH   6   5
ENDBRANCH   8   7
ENDBRANCH  10   8
BRANCH  11  13
ATOM     13  C   UNL     1       1.973   1.026  -0.924  0.00  0.00    +0.000 C 
ATOM     14  C   UNL     1       3.007   0.370  -1.395  0.00  0.00    +0.000 C 
BRANCH  14  15
ATOM     15  C   UNL     1       4.318   0.334  -0.736  0.00  0.00    +0.000 A 
ATOM     16  C   UNL     1       5.074  -0.804  -0.985  0.00  0.00    +0.000 A 
ATOM     17  C   UNL     1       6.238  -1.015  -0.290  0.00  0.00    +0.000 A 
ATOM     18  C   UNL     1       6.442  -0.410   0.932  0.00  0.00    +0.000 A 
ATOM     19  O   UNL     1       7.754  -0.390   1.398  0.00  0.00    +0.000 OA
ATOM     20  C   UNL     1       5.607   0.637   1.290  0.00  0.00    +0.000 A 
ATOM     23  C   UNL     1       4.589   1.009   0.429  0.00  0.00    +0.000 A 
BRANCH  20  21
ATOM     21  O   UNL     1       5.622   0.997   2.633  0.00  0.00    +0.000 OA
ATOM     22  C   UNL     1       5.212   0.101   3.661  0.00  0.00    +0.000 C 
ENDBRANCH  20  21
ENDBRANCH  14  15
ENDBRANCH  11  13
TORSDOF 7
