REMARK  Name = 
REMARK  14 active torsions:
REMARK  status: ('A' for Active; 'I' for Inactive)
REMARK    1  A    between atoms: O_2  and  C_3
REMARK    2  A    between atoms: C_5  and  C_6
REMARK    3  A    between atoms: C_7  and  C_8
REMARK    4  A    between atoms: C_8  and  C_10
REMARK    5  A    between atoms: C_11  and  C_12
REMARK    6  A    between atoms: C_13  and  C_14
REMARK    7  A    between atoms: C_19  and  O_20
REMARK    8  A    between atoms: C_24  and  C_25
REMARK    9  A    between atoms: C_30  and  O_31
REMARK   10  A    between atoms: C_34  and  C_35
REMARK   11  A    between atoms: C_35  and  C_37
REMARK   12  A    between atoms: C_38  and  C_40
REMARK   13  A    between atoms: C_41  and  C_42
REMARK   14  A    between atoms: C_47  and  O_48
REMARK                            x       y       z     vdW  Elec       q    Type
REMARK                         _______ _______ _______ _____ _____    ______ ____
ROOT
ATOM     10  C   UNL     1      -0.668   0.849  -0.265  0.00  0.00    +0.000 C 
ATOM     11  C   UNL     1      -1.348  -0.235  -0.651  0.00  0.00    +0.000 C 
ATOM     23  O   UNL     1      -0.806  -0.381  -1.876  0.00  0.00    +0.000 OA
ATOM     24  C   UNL     1       0.731  -0.516  -1.690  0.00  0.00    +0.000 C 
ATOM     34  C   UNL     1       0.666  -0.029  -0.012  0.00  0.00    +0.000 C 
ENDROOT
BRANCH  24  25
ATOM     25  C   UNL     1       0.563  -2.091  -1.283  0.00  0.00    +0.000 A 
ATOM     26  C   UNL     1       1.536  -2.598  -0.484  0.00  0.00    +0.000 A 
ATOM     27  C   UNL     1       1.377  -3.942  -0.152  0.00  0.00    +0.000 A 
ATOM     28  C   UNL     1       0.364  -4.716  -0.709  0.00  0.00    +0.000 A 
ATOM     29  O   UNL     1      -0.295  -5.704   0.035  0.00  0.00    +0.000 OA
ATOM     30  C   UNL     1      -0.192  -4.211  -1.882  0.00  0.00    +0.000 A 
ATOM     33  C   UNL     1       0.001  -2.879  -2.240  0.00  0.00    +0.000 A 
BRANCH  30  31
ATOM     31  O   UNL     1      -0.918  -5.093  -2.657  0.00  0.00    +0.000 OA
ATOM     32  C   UNL     1      -2.314  -5.085  -2.786  0.00  0.00    +0.000 C 
ENDBRANCH  30  31
ENDBRANCH  24  25
BRANCH  10   8
ATOM      8  C   UNL     1      -1.014   1.716   0.859  0.00  0.00    +0.000 C 
ATOM      9  O   UNL     1      -0.115   2.423   1.410  0.00  0.00    +0.000 OA
BRANCH   8   7
ATOM      6  C   UNL     1      -3.077   2.671  -0.070  0.00  0.00    +0.000 C 
ATOM      7  C   UNL     1      -2.353   2.309   0.958  0.00  0.00    +0.000 C 
BRANCH   6   5
ATOM      3  C   UNL     1      -4.937   5.777   0.598  0.00  0.00    +0.000 A 
ATOM      4  C   UNL     1      -4.767   4.410   0.421  0.00  0.00    +0.000 A 
ATOM      5  C   UNL     1      -3.624   4.022  -0.252  0.00  0.00    +0.000 A 
ATOM     51  C   UNL     1      -2.970   4.943  -1.051  0.00  0.00    +0.000 A 
ATOM     52  C   UNL     1      -3.023   6.290  -0.753  0.00  0.00    +0.000 A 
ATOM     53  C   UNL     1      -4.150   6.711  -0.058  0.00  0.00    +0.000 A 
ATOM     54  O   UNL     1      -4.581   8.034  -0.126  0.00  0.00    +0.000 OA
BRANCH   3   2
ATOM      1  C   UNL     1      -6.175   6.253   2.217  0.00  0.00    +0.000 C 
ATOM      2  O   UNL     1      -5.756   6.231   1.634  0.00  0.00    +0.000 OA
ENDBRANCH   3   2
ENDBRANCH   6   5
ENDBRANCH   8   7
ENDBRANCH  10   8
BRANCH  11  12
ATOM     12  C   UNL     1      -2.715  -0.625  -0.266  0.00  0.00    +0.000 C 
ATOM     13  C   UNL     1      -3.400  -1.519  -0.913  0.00  0.00    +0.000 C 
BRANCH  13  14
ATOM     14  C   UNL     1      -3.966  -2.741  -0.381  0.00  0.00    +0.000 A 
ATOM     15  C   UNL     1      -3.353  -3.924  -0.775  0.00  0.00    +0.000 A 
ATOM     16  C   UNL     1      -3.716  -5.150  -0.237  0.00  0.00    +0.000 A 
ATOM     17  C   UNL     1      -4.769  -5.214   0.659  0.00  0.00    +0.000 A 
ATOM     18  O   UNL     1      -5.349  -6.436   1.003  0.00  0.00    +0.000 OA
ATOM     19  C   UNL     1      -5.314  -4.021   1.124  0.00  0.00    +0.000 A 
ATOM     22  C   UNL     1      -4.901  -2.804   0.614  0.00  0.00    +0.000 A 
BRANCH  19  20
ATOM     20  O   UNL     1      -6.220  -4.086   2.185  0.00  0.00    +0.000 OA
ATOM     21  C   UNL     1      -7.399  -3.301   2.230  0.00  0.00    +0.000 C 
ENDBRANCH  19  20
ENDBRANCH  13  14
ENDBRANCH  11  12
BRANCH  34  35
ATOM     35  C   UNL     1       1.644   1.236  -0.240  0.00  0.00    +0.000 C 
ATOM     36  O   UNL     1       1.449   1.926  -1.240  0.00  0.00    +0.000 OA
BRANCH  35  37
ATOM     37  C   UNL     1       2.938   1.152   0.404  0.00  0.00    +0.000 C 
ATOM     38  C   UNL     1       3.234   0.364   1.410  0.00  0.00    +0.000 C 
ATOM     39  O   UNL     1       2.157  -0.141   2.146  0.00  0.00    +0.000 OA
BRANCH  38  40
ATOM     40  C   UNL     1       4.578  -0.209   1.569  0.00  0.00    +0.000 C 
ATOM     41  C   UNL     1       5.631   0.485   1.926  0.00  0.00    +0.000 C 
BRANCH  41  42
ATOM     42  C   UNL     1       6.913   0.477   1.260  0.00  0.00    +0.000 A 
ATOM     43  C   UNL     1       7.987  -0.300   1.601  0.00  0.00    +0.000 A 
ATOM     44  C   UNL     1       9.250   0.026   1.140  0.00  0.00    +0.000 A 
ATOM     45  C   UNL     1       9.428   0.974   0.173  0.00  0.00    +0.000 A 
ATOM     46  O   UNL     1      10.660   1.520  -0.168  0.00  0.00    +0.000 OA
ATOM     47  C   UNL     1       8.309   1.544  -0.389  0.00  0.00    +0.000 A 
ATOM     50  C   UNL     1       7.088   1.341   0.191  0.00  0.00    +0.000 A 
BRANCH  47  48
ATOM     48  O   UNL     1       8.335   2.222  -1.602  0.00  0.00    +0.000 OA
ATOM     49  C   UNL     1       9.344   2.046  -2.558  0.00  0.00    +0.000 C 
ENDBRANCH  47  48
ENDBRANCH  41  42
ENDBRANCH  38  40
ENDBRANCH  35  37
ENDBRANCH  34  35
TORSDOF 14
