REMARK  Name = 
REMARK  6 active torsions:
REMARK  status: ('A' for Active; 'I' for Inactive)
REMARK    1  A    between atoms: O_2  and  C_3
REMARK    2  A    between atoms: C_5  and  C_6
REMARK    3  A    between atoms: C_7  and  C_8
REMARK    4  A    between atoms: C_10  and  C_11
REMARK    5  A    between atoms: C_12  and  C_13
REMARK    6  A    between atoms: C_18  and  O_19
REMARK                            x       y       z     vdW  Elec       q    Type
REMARK                         _______ _______ _______ _____ _____    ______ ____
ROOT
ATOM      8  C   UNL     1      -0.741  -0.578  -0.876  0.00  0.00    +0.000 A 
ATOM      9  C   UNL     1       0.045   0.526  -0.652  0.00  0.00    +0.000 A 
ATOM     10  C   UNL     1       0.871   0.304   0.443  0.00  0.00    +0.000 A 
ATOM     22  N   UNL     1       0.584  -0.962   0.833  0.00  0.00    +0.000 NA
ATOM     23  N   UNL     1      -0.249  -1.526  -0.041  0.00  0.00    +0.000 NA
ENDROOT
BRANCH   8   7
ATOM      6  C   UNL     1      -3.047   0.220  -1.034  0.00  0.00    +0.000 C 
ATOM      7  C   UNL     1      -2.125  -0.654  -1.361  0.00  0.00    +0.000 C 
BRANCH   6   5
ATOM      3  C   UNL     1      -6.411   1.004   0.162  0.00  0.00    +0.000 A 
ATOM      4  C   UNL     1      -5.385   0.870  -0.765  0.00  0.00    +0.000 A 
ATOM      5  C   UNL     1      -4.403  -0.105  -0.642  0.00  0.00    +0.000 A 
ATOM     24  C   UNL     1      -4.720  -1.149   0.219  0.00  0.00    +0.000 A 
ATOM     25  C   UNL     1      -5.778  -1.067   1.094  0.00  0.00    +0.000 A 
ATOM     26  C   UNL     1      -6.788  -0.154   0.829  0.00  0.00    +0.000 A 
ATOM     27  O   UNL     1      -8.014  -0.194   1.478  0.00  0.00    +0.000 OA
BRANCH   3   2
ATOM      1  C   UNL     1      -7.384   2.751  -1.200  0.00  0.00    +0.000 C 
ATOM      2  O   UNL     1      -7.337   2.024   0.017  0.00  0.00    +0.000 OA
ENDBRANCH   3   2
ENDBRANCH   6   5
ENDBRANCH   8   7
BRANCH  10  11
ATOM     11  C   UNL     1       2.216   0.855   0.661  0.00  0.00    +0.000 C 
ATOM     12  C   UNL     1       3.051   1.151  -0.303  0.00  0.00    +0.000 C 
BRANCH  12  13
ATOM     13  C   UNL     1       4.409   0.600  -0.409  0.00  0.00    +0.000 A 
ATOM     14  C   UNL     1       4.611  -0.270  -1.474  0.00  0.00    +0.000 A 
ATOM     15  C   UNL     1       5.479  -1.352  -1.385  0.00  0.00    +0.000 A 
ATOM     16  C   UNL     1       6.399  -1.313  -0.349  0.00  0.00    +0.000 A 
ATOM     17  O   UNL     1       7.281  -2.376  -0.201  0.00  0.00    +0.000 OA
ATOM     18  C   UNL     1       6.399  -0.245   0.538  0.00  0.00    +0.000 A 
ATOM     21  C   UNL     1       5.269   0.551   0.678  0.00  0.00    +0.000 A 
BRANCH  18  19
ATOM     19  O   UNL     1       7.522  -0.062   1.351  0.00  0.00    +0.000 OA
ATOM     20  C   UNL     1       8.244   1.151   1.179  0.00  0.00    +0.000 C 
ENDBRANCH  18  19
ENDBRANCH  12  13
ENDBRANCH  10  11
TORSDOF 6
