REMARK  Name = 
REMARK  14 active torsions:
REMARK  status: ('A' for Active; 'I' for Inactive)
REMARK    1  A    between atoms: O_2  and  C_3
REMARK    2  A    between atoms: C_5  and  C_6
REMARK    3  A    between atoms: C_7  and  C_8
REMARK    4  A    between atoms: C_8  and  C_10
REMARK    5  A    between atoms: C_11  and  C_13
REMARK    6  A    between atoms: C_14  and  C_15
REMARK    7  A    between atoms: C_20  and  O_21
REMARK    8  A    between atoms: C_28  and  C_29
REMARK    9  A    between atoms: C_34  and  O_35
REMARK   10  A    between atoms: C_38  and  C_39
REMARK   11  A    between atoms: C_39  and  C_41
REMARK   12  A    between atoms: C_42  and  C_44
REMARK   13  A    between atoms: C_45  and  C_46
REMARK   14  A    between atoms: C_51  and  O_52
REMARK                            x       y       z     vdW  Elec       q    Type
REMARK                         _______ _______ _______ _____ _____    ______ ____
ROOT
ATOM      3  C   UNL     1       0.317  -0.229   1.377  0.00  0.00    +0.000 A 
ATOM      4  C   UNL     1       1.178   0.864   1.472  0.00  0.00    +0.000 A 
ATOM      5  C   UNL     1       1.319   1.702   0.369  0.00  0.00    +0.000 A 
ATOM     24  C   UNL     1       0.373   1.639  -0.650  0.00  0.00    +0.000 A 
ATOM     25  C   UNL     1      -0.553   0.605  -0.744  0.00  0.00    +0.000 A 
ATOM     26  C   UNL     1      -0.694  -0.153   0.419  0.00  0.00    +0.000 A 
ATOM     27  O   UNL     1      -1.347  -1.187  -0.177  0.00  0.00    +0.000 OA
ATOM     28  C   UNL     1      -2.656  -0.617  -0.770  0.00  0.00    +0.000 C 
ATOM     38  C   UNL     1      -2.107   1.032  -0.745  0.00  0.00    +0.000 C 
ENDROOT
BRANCH  28  29
ATOM     29  C   UNL     1      -3.382  -0.442   0.677  0.00  0.00    +0.000 A 
ATOM     30  C   UNL     1      -2.959  -1.099   1.754  0.00  0.00    +0.000 A 
ATOM     31  C   UNL     1      -3.308  -0.594   3.005  0.00  0.00    +0.000 A 
ATOM     32  C   UNL     1      -4.053   0.577   3.085  0.00  0.00    +0.000 A 
ATOM     33  O   UNL     1      -3.937   1.465   4.155  0.00  0.00    +0.000 OA
ATOM     34  C   UNL     1      -4.867   0.826   1.985  0.00  0.00    +0.000 A 
ATOM     37  C   UNL     1      -4.356   0.516   0.726  0.00  0.00    +0.000 A 
BRANCH  34  35
ATOM     35  O   UNL     1      -5.625   2.000   2.021  0.00  0.00    +0.000 OA
ATOM     36  C   UNL     1      -5.267   3.138   1.268  0.00  0.00    +0.000 C 
ENDBRANCH  34  35
ENDBRANCH  28  29
BRANCH   3   2
ATOM      1  C   UNL     1       1.558  -1.909   1.961  0.00  0.00    +0.000 C 
ATOM      2  O   UNL     1       0.658  -1.456   1.963  0.00  0.00    +0.000 OA
ENDBRANCH   3   2
BRANCH   5   6
ATOM      6  C   UNL     1       2.634   2.309   0.110  0.00  0.00    +0.000 C 
ATOM      7  C   UNL     1       3.284   2.218  -1.013  0.00  0.00    +0.000 C 
BRANCH   7   8
ATOM      8  C   UNL     1       4.543   1.495  -1.215  0.00  0.00    +0.000 C 
ATOM      9  O   UNL     1       4.759   1.120  -2.407  0.00  0.00    +0.000 OA
BRANCH   8  10
ATOM     10  C   UNL     1       5.454   1.179  -0.116  0.00  0.00    +0.000 C 
ATOM     11  C   UNL     1       5.483  -0.020   0.447  0.00  0.00    +0.000 C 
ATOM     12  O   UNL     1       4.301  -0.726   0.487  0.00  0.00    +0.000 OA
BRANCH  11  13
ATOM     13  C   UNL     1       6.698  -0.735   0.789  0.00  0.00    +0.000 C 
ATOM     14  C   UNL     1       7.236  -1.689   0.056  0.00  0.00    +0.000 C 
BRANCH  14  15
ATOM     15  C   UNL     1       8.645  -1.676  -0.359  0.00  0.00    +0.000 A 
ATOM     16  C   UNL     1       8.970  -1.408  -1.680  0.00  0.00    +0.000 A 
ATOM     17  C   UNL     1      10.160  -0.864  -2.075  0.00  0.00    +0.000 A 
ATOM     18  C   UNL     1      11.137  -0.656  -1.116  0.00  0.00    +0.000 A 
ATOM     19  O   UNL     1      12.143   0.236  -1.429  0.00  0.00    +0.000 OA
ATOM     20  C   UNL     1      10.901  -1.068   0.185  0.00  0.00    +0.000 A 
ATOM     23  C   UNL     1       9.686  -1.637   0.550  0.00  0.00    +0.000 A 
BRANCH  20  21
ATOM     21  O   UNL     1      11.705  -0.500   1.179  0.00  0.00    +0.000 OA
ATOM     22  C   UNL     1      11.204   0.710   1.741  0.00  0.00    +0.000 C 
ENDBRANCH  20  21
ENDBRANCH  14  15
ENDBRANCH  11  13
ENDBRANCH   8  10
ENDBRANCH   7   8
ENDBRANCH   5   6
BRANCH  38  39
ATOM     39  C   UNL     1      -2.150   1.144  -2.351  0.00  0.00    +0.000 C 
ATOM     40  O   UNL     1      -1.366   2.020  -2.826  0.00  0.00    +0.000 OA
BRANCH  39  41
ATOM     41  C   UNL     1      -3.410   0.780  -2.964  0.00  0.00    +0.000 C 
ATOM     42  C   UNL     1      -4.464   1.593  -3.047  0.00  0.00    +0.000 C 
ATOM     43  O   UNL     1      -4.265   2.851  -2.466  0.00  0.00    +0.000 OA
BRANCH  42  44
ATOM     44  C   UNL     1      -5.805   1.020  -2.843  0.00  0.00    +0.000 C 
ATOM     45  C   UNL     1      -6.476   1.144  -1.721  0.00  0.00    +0.000 C 
BRANCH  45  46
ATOM     46  C   UNL     1      -6.975   0.069  -0.899  0.00  0.00    +0.000 A 
ATOM     47  C   UNL     1      -6.440  -0.095   0.372  0.00  0.00    +0.000 A 
ATOM     48  C   UNL     1      -6.958  -1.049   1.240  0.00  0.00    +0.000 A 
ATOM     49  C   UNL     1      -8.007  -1.841   0.792  0.00  0.00    +0.000 A 
ATOM     50  O   UNL     1      -8.879  -2.493   1.654  0.00  0.00    +0.000 OA
ATOM     51  C   UNL     1      -8.027  -2.056  -0.581  0.00  0.00    +0.000 A 
ATOM     54  C   UNL     1      -7.654  -1.033  -1.408  0.00  0.00    +0.000 A 
BRANCH  51  52
ATOM     52  O   UNL     1      -8.849  -3.061  -1.055  0.00  0.00    +0.000 OA
ATOM     53  C   UNL     1      -9.510  -3.957  -0.192  0.00  0.00    +0.000 C 
ENDBRANCH  51  52
ENDBRANCH  45  46
ENDBRANCH  42  44
ENDBRANCH  39  41
ENDBRANCH  38  39
TORSDOF 14
