REMARK  Name = 
REMARK  10 active torsions:
REMARK  status: ('A' for Active; 'I' for Inactive)
REMARK    1  A    between atoms: O_2  and  C_3
REMARK    2  A    between atoms: C_5  and  C_6
REMARK    3  A    between atoms: C_6  and  C_7
REMARK    4  A    between atoms: C_8  and  C_9
REMARK    5  A    between atoms: C_9  and  C_11
REMARK    6  A    between atoms: C_11  and  C_12
REMARK    7  A    between atoms: C_12  and  C_14
REMARK    8  A    between atoms: C_15  and  C_16
REMARK    9  A    between atoms: C_16  and  C_17
REMARK   10  A    between atoms: C_22  and  O_23
REMARK                            x       y       z     vdW  Elec       q    Type
REMARK                         _______ _______ _______ _____ _____    ______ ____
ROOT
ATOM     11  C   UNL     1       0.061   0.131  -0.194  0.00  0.00    +0.000 C 
ENDROOT
BRANCH  11   9
ATOM      9  C   UNL     1      -1.003   0.158   0.835  0.00  0.00    +0.000 C 
ATOM     10  O   UNL     1      -1.196   1.129   1.604  0.00  0.00    +0.000 OA
BRANCH   9   8
ATOM      7  C   UNL     1      -2.145  -1.778  -0.139  0.00  0.00    +0.000 C 
ATOM      8  C   UNL     1      -1.998  -0.906   0.829  0.00  0.00    +0.000 C 
BRANCH   7   6
ATOM      6  C   UNL     1      -3.435  -2.252  -0.675  0.00  0.00    +0.000 C 
BRANCH   6   5
ATOM      3  C   UNL     1      -6.502  -0.190  -0.434  0.00  0.00    +0.000 A 
ATOM      4  C   UNL     1      -5.558  -1.163  -0.167  0.00  0.00    +0.000 A 
ATOM      5  C   UNL     1      -4.392  -1.129  -0.923  0.00  0.00    +0.000 A 
ATOM     26  C   UNL     1      -3.939   0.143  -1.250  0.00  0.00    +0.000 A 
ATOM     27  C   UNL     1      -4.893   1.091  -1.595  0.00  0.00    +0.000 A 
ATOM     28  C   UNL     1      -6.230   0.848  -1.315  0.00  0.00    +0.000 A 
ATOM     29  O   UNL     1      -7.256   1.584  -1.907  0.00  0.00    +0.000 OA
BRANCH   3   2
ATOM      1  C   UNL     1      -8.463   0.612   0.685  0.00  0.00    +0.000 C 
ATOM      2  O   UNL     1      -7.806  -0.427   0.003  0.00  0.00    +0.000 OA
ENDBRANCH   3   2
ENDBRANCH   6   5
ENDBRANCH   7   6
ENDBRANCH   9   8
ENDBRANCH  11   9
BRANCH  11  12
ATOM     12  C   UNL     1       0.789   1.413  -0.291  0.00  0.00    +0.000 C 
ATOM     13  O   UNL     1       0.869   1.946  -1.435  0.00  0.00    +0.000 OA
BRANCH  12  14
ATOM     14  C   UNL     1       1.692   1.759   0.790  0.00  0.00    +0.000 C 
ATOM     15  C   UNL     1       2.434   0.793   1.302  0.00  0.00    +0.000 C 
BRANCH  15  16
ATOM     16  C   UNL     1       2.690  -0.502   0.639  0.00  0.00    +0.000 C 
BRANCH  16  17
ATOM     17  C   UNL     1       4.108  -0.939   0.834  0.00  0.00    +0.000 A 
ATOM     18  C   UNL     1       4.751  -0.747   2.051  0.00  0.00    +0.000 A 
ATOM     19  C   UNL     1       6.116  -0.495   2.112  0.00  0.00    +0.000 A 
ATOM     20  C   UNL     1       6.821  -0.193   0.955  0.00  0.00    +0.000 A 
ATOM     21  O   UNL     1       7.827   0.778   0.931  0.00  0.00    +0.000 OA
ATOM     22  C   UNL     1       6.271  -0.656  -0.234  0.00  0.00    +0.000 A 
ATOM     25  C   UNL     1       4.946  -1.060  -0.268  0.00  0.00    +0.000 A 
BRANCH  22  23
ATOM     23  O   UNL     1       7.068  -0.681  -1.365  0.00  0.00    +0.000 OA
ATOM     24  C   UNL     1       8.373  -1.217  -1.377  0.00  0.00    +0.000 C 
ENDBRANCH  22  23
ENDBRANCH  16  17
ENDBRANCH  15  16
ENDBRANCH  12  14
ENDBRANCH  11  12
TORSDOF 10
