REMARK  Name = 
REMARK  14 active torsions:
REMARK  status: ('A' for Active; 'I' for Inactive)
REMARK    1  A    between atoms: O_2  and  C_3
REMARK    2  A    between atoms: C_5  and  C_6
REMARK    3  A    between atoms: C_7  and  C_8
REMARK    4  A    between atoms: C_8  and  C_10
REMARK    5  A    between atoms: C_11  and  C_12
REMARK    6  A    between atoms: C_13  and  C_14
REMARK    7  A    between atoms: C_19  and  O_20
REMARK    8  A    between atoms: C_24  and  C_25
REMARK    9  A    between atoms: C_30  and  O_31
REMARK   10  A    between atoms: C_34  and  C_35
REMARK   11  A    between atoms: C_35  and  C_37
REMARK   12  A    between atoms: C_38  and  C_40
REMARK   13  A    between atoms: C_41  and  C_42
REMARK   14  A    between atoms: C_47  and  O_48
REMARK                            x       y       z     vdW  Elec       q    Type
REMARK                         _______ _______ _______ _____ _____    ______ ____
ROOT
ATOM     10  C   UNL     1      -0.413   0.736   0.473  0.00  0.00    +0.000 C 
ATOM     11  C   UNL     1      -1.067  -0.358   0.807  0.00  0.00    +0.000 C 
ATOM     23  O   UNL     1      -0.042  -1.035   1.379  0.00  0.00    +0.000 OA
ATOM     24  C   UNL     1       1.074  -1.172   0.311  0.00  0.00    +0.000 C 
ATOM     34  C   UNL     1       0.350   0.010  -0.754  0.00  0.00    +0.000 C 
ENDROOT
BRANCH  24  25
ATOM     25  C   UNL     1       0.267  -2.408  -0.411  0.00  0.00    +0.000 A 
ATOM     26  C   UNL     1       0.098  -3.482   0.463  0.00  0.00    +0.000 A 
ATOM     27  C   UNL     1      -0.218  -4.744   0.020  0.00  0.00    +0.000 A 
ATOM     28  C   UNL     1      -0.026  -4.990  -1.333  0.00  0.00    +0.000 A 
ATOM     29  O   UNL     1      -0.624  -6.151  -1.836  0.00  0.00    +0.000 OA
ATOM     30  C   UNL     1       0.324  -3.947  -2.183  0.00  0.00    +0.000 A 
ATOM     33  C   UNL     1       0.764  -2.741  -1.649  0.00  0.00    +0.000 A 
BRANCH  30  31
ATOM     31  O   UNL     1       0.128  -4.112  -3.558  0.00  0.00    +0.000 OA
ATOM     32  C   UNL     1      -0.674  -5.165  -4.021  0.00  0.00    +0.000 C 
ENDBRANCH  30  31
ENDBRANCH  24  25
BRANCH  10   8
ATOM      8  C   UNL     1      -0.994   2.051   0.313  0.00  0.00    +0.000 C 
ATOM      9  O   UNL     1      -0.378   3.007   0.883  0.00  0.00    +0.000 OA
BRANCH   8   7
ATOM      6  C   UNL     1      -2.836   2.938  -1.056  0.00  0.00    +0.000 C 
ATOM      7  C   UNL     1      -2.390   2.313   0.001  0.00  0.00    +0.000 C 
BRANCH   6   5
ATOM      3  C   UNL     1      -4.729   5.629   0.587  0.00  0.00    +0.000 A 
ATOM      4  C   UNL     1      -4.472   4.347   0.122  0.00  0.00    +0.000 A 
ATOM      5  C   UNL     1      -3.725   4.109  -1.027  0.00  0.00    +0.000 A 
ATOM     51  C   UNL     1      -3.208   5.247  -1.639  0.00  0.00    +0.000 A 
ATOM     52  C   UNL     1      -3.373   6.512  -1.137  0.00  0.00    +0.000 A 
ATOM     53  C   UNL     1      -4.267   6.722  -0.130  0.00  0.00    +0.000 A 
ATOM     54  O   UNL     1      -4.709   8.012   0.091  0.00  0.00    +0.000 OA
BRANCH   3   2
ATOM      1  C   UNL     1      -6.122   5.841   2.341  0.00  0.00    +0.000 C 
ATOM      2  O   UNL     1      -5.646   5.906   1.587  0.00  0.00    +0.000 OA
ENDBRANCH   3   2
ENDBRANCH   6   5
ENDBRANCH   8   7
ENDBRANCH  10   8
BRANCH  11  12
ATOM     12  C   UNL     1      -2.464  -0.546   1.224  0.00  0.00    +0.000 C 
ATOM     13  C   UNL     1      -3.425  -1.038   0.511  0.00  0.00    +0.000 C 
BRANCH  13  14
ATOM     14  C   UNL     1      -3.946  -2.383   0.460  0.00  0.00    +0.000 A 
ATOM     15  C   UNL     1      -3.665  -3.208  -0.627  0.00  0.00    +0.000 A 
ATOM     16  C   UNL     1      -3.903  -4.575  -0.560  0.00  0.00    +0.000 A 
ATOM     17  C   UNL     1      -4.784  -4.967   0.440  0.00  0.00    +0.000 A 
ATOM     18  O   UNL     1      -5.081  -6.294   0.649  0.00  0.00    +0.000 OA
ATOM     19  C   UNL     1      -5.424  -4.031   1.235  0.00  0.00    +0.000 A 
ATOM     22  C   UNL     1      -5.149  -2.682   1.087  0.00  0.00    +0.000 A 
BRANCH  19  20
ATOM     20  O   UNL     1      -6.238  -4.451   2.282  0.00  0.00    +0.000 OA
ATOM     21  C   UNL     1      -7.391  -3.650   2.516  0.00  0.00    +0.000 C 
ENDBRANCH  19  20
ENDBRANCH  13  14
ENDBRANCH  11  12
BRANCH  34  35
ATOM     35  C   UNL     1       1.575   1.058  -0.660  0.00  0.00    +0.000 C 
ATOM     36  O   UNL     1       1.261   2.080  -1.302  0.00  0.00    +0.000 OA
BRANCH  35  37
ATOM     37  C   UNL     1       2.872   0.591  -0.335  0.00  0.00    +0.000 C 
ATOM     38  C   UNL     1       3.262   0.743   0.933  0.00  0.00    +0.000 C 
ATOM     39  O   UNL     1       2.695   1.793   1.657  0.00  0.00    +0.000 OA
BRANCH  38  40
ATOM     40  C   UNL     1       4.513   0.219   1.438  0.00  0.00    +0.000 C 
ATOM     41  C   UNL     1       5.393  -0.443   0.730  0.00  0.00    +0.000 C 
BRANCH  41  42
ATOM     42  C   UNL     1       6.808  -0.065   0.609  0.00  0.00    +0.000 A 
ATOM     43  C   UNL     1       7.753  -0.524   1.487  0.00  0.00    +0.000 A 
ATOM     44  C   UNL     1       9.020   0.039   1.363  0.00  0.00    +0.000 A 
ATOM     45  C   UNL     1       9.274   1.060   0.456  0.00  0.00    +0.000 A 
ATOM     46  O   UNL     1      10.424   1.807   0.556  0.00  0.00    +0.000 OA
ATOM     47  C   UNL     1       8.274   1.494  -0.408  0.00  0.00    +0.000 A 
ATOM     50  C   UNL     1       7.168   0.691  -0.501  0.00  0.00    +0.000 A 
BRANCH  47  48
ATOM     48  O   UNL     1       8.568   2.340  -1.482  0.00  0.00    +0.000 OA
ATOM     49  C   UNL     1       9.518   1.860  -2.401  0.00  0.00    +0.000 C 
ENDBRANCH  47  48
ENDBRANCH  41  42
ENDBRANCH  38  40
ENDBRANCH  35  37
ENDBRANCH  34  35
TORSDOF 14
