REMARK  Name = 
REMARK  13 active torsions:
REMARK  status: ('A' for Active; 'I' for Inactive)
REMARK    1  A    between atoms: O_2  and  C_3
REMARK    2  A    between atoms: C_5  and  C_6
REMARK    3  A    between atoms: C_7  and  C_8
REMARK    4  A    between atoms: C_8  and  C_10
REMARK    5  A    between atoms: C_13  and  C_14
REMARK    6  A    between atoms: C_19  and  O_20
REMARK    7  A    between atoms: C_23  and  C_24
REMARK    8  A    between atoms: C_24  and  C_26
REMARK    9  A    between atoms: C_27  and  C_29
REMARK   10  A    between atoms: C_30  and  C_31
REMARK   11  A    between atoms: C_36  and  O_37
REMARK   12  A    between atoms: C_41  and  C_42
REMARK   13  A    between atoms: C_47  and  O_48
REMARK                            x       y       z     vdW  Elec       q    Type
REMARK                         _______ _______ _______ _____ _____    ______ ____
ROOT
ATOM     10  C   UNL     1      -2.461   1.797  -0.138  0.00  0.00    +0.000 C 
ATOM     11  C   UNL     1      -1.481   0.894  -0.192  0.00  0.00    +0.000 C 
ATOM     12  O   UNL     1      -0.622   0.535   0.855  0.00  0.00    +0.000 OA
ATOM     13  C   UNL     1      -0.524  -0.980   0.646  0.00  0.00    +0.000 C 
ATOM     23  C   UNL     1      -0.019  -0.811  -0.987  0.00  0.00    +0.000 C 
ATOM     40  C   UNL     1      -1.391  -0.051  -1.285  0.00  0.00    +0.000 C 
ATOM     41  C   UNL     1      -2.328  -0.618  -2.030  0.00  0.00    +0.000 C 
ENDROOT
BRANCH  13  14
ATOM     14  C   UNL     1       0.986  -1.082   1.191  0.00  0.00    +0.000 A 
ATOM     15  C   UNL     1       1.156  -0.598   2.480  0.00  0.00    +0.000 A 
ATOM     16  C   UNL     1       1.867  -1.300   3.445  0.00  0.00    +0.000 A 
ATOM     17  C   UNL     1       2.162  -2.641   3.245  0.00  0.00    +0.000 A 
ATOM     18  O   UNL     1       2.033  -3.575   4.280  0.00  0.00    +0.000 OA
ATOM     19  C   UNL     1       2.265  -3.028   1.914  0.00  0.00    +0.000 A 
ATOM     22  C   UNL     1       1.467  -2.372   0.991  0.00  0.00    +0.000 A 
BRANCH  19  20
ATOM     20  O   UNL     1       2.608  -4.373   1.728  0.00  0.00    +0.000 OA
ATOM     21  C   UNL     1       1.601  -5.170   1.106  0.00  0.00    +0.000 C 
ENDBRANCH  19  20
ENDBRANCH  13  14
BRANCH  41  42
ATOM     42  C   UNL     1      -2.529  -2.078  -2.073  0.00  0.00    +0.000 A 
ATOM     43  C   UNL     1      -3.811  -2.491  -1.720  0.00  0.00    +0.000 A 
ATOM     44  C   UNL     1      -4.019  -3.651  -0.982  0.00  0.00    +0.000 A 
ATOM     45  C   UNL     1      -2.943  -4.351  -0.451  0.00  0.00    +0.000 A 
ATOM     46  O   UNL     1      -3.135  -5.427   0.418  0.00  0.00    +0.000 OA
ATOM     47  C   UNL     1      -1.731  -4.166  -1.105  0.00  0.00    +0.000 A 
ATOM     50  C   UNL     1      -1.532  -2.974  -1.791  0.00  0.00    +0.000 A 
BRANCH  47  48
ATOM     48  O   UNL     1      -0.602  -4.665  -0.445  0.00  0.00    +0.000 OA
ATOM     49  C   UNL     1      -0.627  -5.210   0.846  0.00  0.00    +0.000 C 
ENDBRANCH  47  48
ENDBRANCH  41  42
BRANCH  10   8
ATOM      8  C   UNL     1      -2.901   2.378   1.138  0.00  0.00    +0.000 C 
ATOM      9  O   UNL     1      -3.186   1.568   2.061  0.00  0.00    +0.000 OA
BRANCH   8   7
ATOM      6  C   UNL     1      -4.620   4.164   1.300  0.00  0.00    +0.000 C 
ATOM      7  C   UNL     1      -3.515   3.656   1.001  0.00  0.00    +0.000 C 
BRANCH   6   5
ATOM      3  C   UNL     1      -7.877   2.959   0.269  0.00  0.00    +0.000 A 
ATOM      4  C   UNL     1      -6.962   3.573   1.090  0.00  0.00    +0.000 A 
ATOM      5  C   UNL     1      -5.877   4.300   0.612  0.00  0.00    +0.000 A 
ATOM     51  C   UNL     1      -6.003   4.741  -0.700  0.00  0.00    +0.000 A 
ATOM     52  C   UNL     1      -7.064   4.327  -1.496  0.00  0.00    +0.000 A 
ATOM     53  C   UNL     1      -7.893   3.297  -1.074  0.00  0.00    +0.000 A 
ATOM     54  O   UNL     1      -8.652   2.622  -2.004  0.00  0.00    +0.000 OA
BRANCH   3   2
ATOM      1  C   UNL     1      -8.550   0.987   0.873  0.00  0.00    +0.000 C 
ATOM      2  O   UNL     1      -8.671   1.888   0.647  0.00  0.00    +0.000 OA
ENDBRANCH   3   2
ENDBRANCH   6   5
ENDBRANCH   8   7
ENDBRANCH  10   8
BRANCH  23  24
ATOM     24  C   UNL     1       0.853   0.517  -0.808  0.00  0.00    +0.000 C 
ATOM     25  O   UNL     1       0.610   1.467  -1.613  0.00  0.00    +0.000 OA
BRANCH  24  26
ATOM     26  C   UNL     1       2.305   0.326  -0.661  0.00  0.00    +0.000 C 
ATOM     27  C   UNL     1       3.094   0.216  -1.731  0.00  0.00    +0.000 C 
ATOM     28  O   UNL     1       2.548  -0.599  -2.729  0.00  0.00    +0.000 OA
BRANCH  27  29
ATOM     29  C   UNL     1       4.520   0.024  -1.457  0.00  0.00    +0.000 C 
ATOM     30  C   UNL     1       5.418   0.978  -1.518  0.00  0.00    +0.000 C 
BRANCH  30  31
ATOM     31  C   UNL     1       6.397   1.263  -0.480  0.00  0.00    +0.000 A 
ATOM     32  C   UNL     1       6.372   2.508   0.137  0.00  0.00    +0.000 A 
ATOM     33  C   UNL     1       7.532   3.105   0.601  0.00  0.00    +0.000 A 
ATOM     34  C   UNL     1       8.721   2.404   0.604  0.00  0.00    +0.000 A 
ATOM     35  O   UNL     1       9.954   3.057   0.569  0.00  0.00    +0.000 OA
ATOM     36  C   UNL     1       8.672   1.056   0.290  0.00  0.00    +0.000 A 
ATOM     39  C   UNL     1       7.532   0.511  -0.268  0.00  0.00    +0.000 A 
BRANCH  36  37
ATOM     37  O   UNL     1       9.814   0.320   0.566  0.00  0.00    +0.000 OA
ATOM     38  C   UNL     1      11.037   0.775  -0.009  0.00  0.00    +0.000 C 
ENDBRANCH  36  37
ENDBRANCH  30  31
ENDBRANCH  27  29
ENDBRANCH  24  26
ENDBRANCH  23  24
TORSDOF 13
