REMARK  Name = 
REMARK  14 active torsions:
REMARK  status: ('A' for Active; 'I' for Inactive)
REMARK    1  A    between atoms: O_2  and  C_3
REMARK    2  A    between atoms: C_5  and  C_6
REMARK    3  A    between atoms: C_7  and  C_8
REMARK    4  A    between atoms: C_8  and  C_10
REMARK    5  A    between atoms: C_11  and  C_13
REMARK    6  A    between atoms: C_14  and  C_15
REMARK    7  A    between atoms: C_20  and  O_21
REMARK    8  A    between atoms: C_28  and  C_29
REMARK    9  A    between atoms: C_34  and  O_35
REMARK   10  A    between atoms: C_38  and  C_39
REMARK   11  A    between atoms: C_39  and  C_41
REMARK   12  A    between atoms: C_42  and  C_44
REMARK   13  A    between atoms: C_45  and  C_46
REMARK   14  A    between atoms: C_51  and  O_52
REMARK                            x       y       z     vdW  Elec       q    Type
REMARK                         _______ _______ _______ _____ _____    ______ ____
ROOT
ATOM      3  C   UNL     1       1.367  -1.338  -1.841  0.00  0.00    +0.000 A 
ATOM      4  C   UNL     1       2.047  -0.533  -0.949  0.00  0.00    +0.000 A 
ATOM      5  C   UNL     1       1.351  -0.047   0.152  0.00  0.00    +0.000 A 
ATOM     24  C   UNL     1      -0.034   0.050   0.056  0.00  0.00    +0.000 A 
ATOM     25  C   UNL     1      -0.764  -0.779  -0.792  0.00  0.00    +0.000 A 
ATOM     26  C   UNL     1      -0.023  -1.274  -1.861  0.00  0.00    +0.000 A 
ATOM     27  O   UNL     1      -0.850  -2.147  -2.446  0.00  0.00    +0.000 OA
ATOM     28  C   UNL     1      -2.285  -1.616  -2.434  0.00  0.00    +0.000 C 
ATOM     38  C   UNL     1      -1.845  -0.090  -1.758  0.00  0.00    +0.000 C 
ENDROOT
BRANCH  28  29
ATOM     29  C   UNL     1      -2.687  -2.297  -1.029  0.00  0.00    +0.000 A 
ATOM     30  C   UNL     1      -4.062  -2.530  -1.129  0.00  0.00    +0.000 A 
ATOM     31  C   UNL     1      -4.632  -3.619  -0.474  0.00  0.00    +0.000 A 
ATOM     32  C   UNL     1      -3.913  -4.077   0.624  0.00  0.00    +0.000 A 
ATOM     33  O   UNL     1      -4.527  -4.684   1.717  0.00  0.00    +0.000 OA
ATOM     34  C   UNL     1      -2.528  -3.965   0.585  0.00  0.00    +0.000 A 
ATOM     37  C   UNL     1      -1.976  -3.323  -0.518  0.00  0.00    +0.000 A 
BRANCH  34  35
ATOM     35  O   UNL     1      -1.851  -4.130   1.795  0.00  0.00    +0.000 OA
ATOM     36  C   UNL     1      -0.521  -3.761   2.022  0.00  0.00    +0.000 C 
ENDBRANCH  34  35
ENDBRANCH  28  29
BRANCH   3   2
ATOM      1  C   UNL     1       2.504  -1.654  -3.816  0.00  0.00    +0.000 C 
ATOM      2  O   UNL     1       2.094  -1.982  -2.849  0.00  0.00    +0.000 OA
ENDBRANCH   3   2
BRANCH   5   6
ATOM      6  C   UNL     1       2.132   0.556   1.205  0.00  0.00    +0.000 C 
ATOM      7  C   UNL     1       2.876  -0.170   2.022  0.00  0.00    +0.000 C 
BRANCH   7   8
ATOM      8  C   UNL     1       4.030   0.482   2.654  0.00  0.00    +0.000 C 
ATOM      9  O   UNL     1       3.809   1.572   3.266  0.00  0.00    +0.000 OA
BRANCH   8  10
ATOM     10  C   UNL     1       5.396   0.325   2.154  0.00  0.00    +0.000 C 
ATOM     11  C   UNL     1       5.504  -0.280   0.969  0.00  0.00    +0.000 C 
ATOM     12  O   UNL     1       4.959  -1.569   0.960  0.00  0.00    +0.000 OA
BRANCH  11  13
ATOM     13  C   UNL     1       6.566   0.046   0.025  0.00  0.00    +0.000 C 
ATOM     14  C   UNL     1       6.817   1.290  -0.386  0.00  0.00    +0.000 C 
BRANCH  14  15
ATOM     15  C   UNL     1       8.225   1.656  -0.601  0.00  0.00    +0.000 A 
ATOM     16  C   UNL     1       8.765   1.502  -1.873  0.00  0.00    +0.000 A 
ATOM     17  C   UNL     1      10.135   1.359  -2.058  0.00  0.00    +0.000 A 
ATOM     18  C   UNL     1      10.974   1.149  -0.970  0.00  0.00    +0.000 A 
ATOM     19  O   UNL     1      12.149   0.416  -1.168  0.00  0.00    +0.000 OA
ATOM     20  C   UNL     1      10.439   1.209   0.312  0.00  0.00    +0.000 A 
ATOM     23  C   UNL     1       9.149   1.683   0.431  0.00  0.00    +0.000 A 
BRANCH  20  21
ATOM     21  O   UNL     1      11.057   0.439   1.304  0.00  0.00    +0.000 OA
ATOM     22  C   UNL     1      10.414  -0.706   1.861  0.00  0.00    +0.000 C 
ENDBRANCH  20  21
ENDBRANCH  14  15
ENDBRANCH  11  13
ENDBRANCH   8  10
ENDBRANCH   7   8
ENDBRANCH   5   6
BRANCH  38  39
ATOM     39  C   UNL     1      -3.044  -0.015  -0.703  0.00  0.00    +0.000 C 
ATOM     40  O   UNL     1      -2.775  -0.061   0.508  0.00  0.00    +0.000 OA
BRANCH  39  41
ATOM     41  C   UNL     1      -4.120   0.931  -1.048  0.00  0.00    +0.000 C 
ATOM     42  C   UNL     1      -4.013   2.199  -0.691  0.00  0.00    +0.000 C 
ATOM     43  O   UNL     1      -2.800   2.569  -0.101  0.00  0.00    +0.000 OA
BRANCH  42  44
ATOM     44  C   UNL     1      -5.104   3.119  -0.501  0.00  0.00    +0.000 C 
ATOM     45  C   UNL     1      -6.245   3.125  -1.139  0.00  0.00    +0.000 C 
BRANCH  45  46
ATOM     46  C   UNL     1      -7.538   3.285  -0.459  0.00  0.00    +0.000 A 
ATOM     47  C   UNL     1      -7.569   3.864   0.785  0.00  0.00    +0.000 A 
ATOM     48  C   UNL     1      -8.405   3.453   1.809  0.00  0.00    +0.000 A 
ATOM     49  C   UNL     1      -9.464   2.650   1.453  0.00  0.00    +0.000 A 
ATOM     50  O   UNL     1     -10.668   2.655   2.123  0.00  0.00    +0.000 OA
ATOM     51  C   UNL     1      -9.349   1.877   0.304  0.00  0.00    +0.000 A 
ATOM     54  C   UNL     1      -8.465   2.277  -0.691  0.00  0.00    +0.000 A 
BRANCH  51  52
ATOM     52  O   UNL     1     -10.440   1.139  -0.168  0.00  0.00    +0.000 OA
ATOM     53  C   UNL     1     -10.261  -0.231  -0.504  0.00  0.00    +0.000 C 
ENDBRANCH  51  52
ENDBRANCH  45  46
ENDBRANCH  42  44
ENDBRANCH  39  41
ENDBRANCH  38  39
TORSDOF 14
