REMARK  Name = 
REMARK  14 active torsions:
REMARK  status: ('A' for Active; 'I' for Inactive)
REMARK    1  A    between atoms: O_2  and  C_3
REMARK    2  A    between atoms: C_5  and  C_6
REMARK    3  A    between atoms: C_7  and  C_8
REMARK    4  A    between atoms: C_8  and  C_10
REMARK    5  A    between atoms: C_11  and  C_12
REMARK    6  A    between atoms: C_13  and  C_14
REMARK    7  A    between atoms: C_19  and  O_20
REMARK    8  A    between atoms: C_24  and  C_25
REMARK    9  A    between atoms: C_30  and  O_31
REMARK   10  A    between atoms: C_34  and  C_35
REMARK   11  A    between atoms: C_35  and  C_37
REMARK   12  A    between atoms: C_38  and  C_40
REMARK   13  A    between atoms: C_41  and  C_42
REMARK   14  A    between atoms: C_47  and  O_48
REMARK                            x       y       z     vdW  Elec       q    Type
REMARK                         _______ _______ _______ _____ _____    ______ ____
ROOT
ATOM     10  C   UNL     1      -1.075   0.267   0.543  0.00  0.00    +0.000 C 
ATOM     11  C   UNL     1      -1.753  -0.176  -0.481  0.00  0.00    +0.000 C 
ATOM     23  O   UNL     1      -0.859  -0.886  -1.297  0.00  0.00    +0.000 OA
ATOM     24  C   UNL     1      -0.448  -1.910  -0.234  0.00  0.00    +0.000 C 
ATOM     34  C   UNL     1       0.224  -0.643   0.713  0.00  0.00    +0.000 C 
ENDROOT
BRANCH  24  25
ATOM     25  C   UNL     1       0.911  -2.320  -0.998  0.00  0.00    +0.000 A 
ATOM     26  C   UNL     1       1.728  -3.018  -0.117  0.00  0.00    +0.000 A 
ATOM     27  C   UNL     1       2.542  -4.037  -0.595  0.00  0.00    +0.000 A 
ATOM     28  C   UNL     1       2.046  -4.844  -1.611  0.00  0.00    +0.000 A 
ATOM     29  O   UNL     1       2.135  -6.240  -1.547  0.00  0.00    +0.000 OA
ATOM     30  C   UNL     1       1.198  -4.215  -2.516  0.00  0.00    +0.000 A 
ATOM     33  C   UNL     1       0.616  -3.007  -2.171  0.00  0.00    +0.000 A 
BRANCH  30  31
ATOM     31  O   UNL     1       0.621  -5.079  -3.458  0.00  0.00    +0.000 OA
ATOM     32  C   UNL     1      -0.657  -5.614  -3.120  0.00  0.00    +0.000 C 
ENDBRANCH  30  31
ENDBRANCH  24  25
BRANCH  10   8
ATOM      8  C   UNL     1      -1.602   1.066   1.640  0.00  0.00    +0.000 C 
ATOM      9  O   UNL     1      -0.998   1.335   2.693  0.00  0.00    +0.000 OA
BRANCH   8   7
ATOM      6  C   UNL     1      -2.217   3.287   0.901  0.00  0.00    +0.000 C 
ATOM      7  C   UNL     1      -2.593   2.075   1.238  0.00  0.00    +0.000 C 
BRANCH   6   5
ATOM      3  C   UNL     1      -4.819   5.847   0.644  0.00  0.00    +0.000 A 
ATOM      4  C   UNL     1      -4.345   4.557   0.769  0.00  0.00    +0.000 A 
ATOM      5  C   UNL     1      -3.134   4.194   0.199  0.00  0.00    +0.000 A 
ATOM     51  C   UNL     1      -2.578   5.063  -0.709  0.00  0.00    +0.000 A 
ATOM     52  C   UNL     1      -3.062   6.349  -0.910  0.00  0.00    +0.000 A 
ATOM     53  C   UNL     1      -4.215   6.731  -0.241  0.00  0.00    +0.000 A 
ATOM     54  O   UNL     1      -4.628   8.067  -0.238  0.00  0.00    +0.000 OA
BRANCH   3   2
ATOM      1  C   UNL     1      -6.623   6.405   1.841  0.00  0.00    +0.000 C 
ATOM      2  O   UNL     1      -5.899   6.304   1.354  0.00  0.00    +0.000 OA
ENDBRANCH   3   2
ENDBRANCH   6   5
ENDBRANCH   8   7
ENDBRANCH  10   8
BRANCH  11  12
ATOM     12  C   UNL     1      -3.157   0.126  -0.671  0.00  0.00    +0.000 C 
ATOM     13  C   UNL     1      -4.235  -0.457  -0.803  0.00  0.00    +0.000 C 
BRANCH  13  14
ATOM     14  C   UNL     1      -4.861  -1.707  -0.487  0.00  0.00    +0.000 A 
ATOM     15  C   UNL     1      -4.884  -2.781  -1.376  0.00  0.00    +0.000 A 
ATOM     16  C   UNL     1      -4.409  -4.009  -0.923  0.00  0.00    +0.000 A 
ATOM     17  C   UNL     1      -4.654  -4.349   0.402  0.00  0.00    +0.000 A 
ATOM     18  O   UNL     1      -4.766  -5.703   0.713  0.00  0.00    +0.000 OA
ATOM     19  C   UNL     1      -5.169  -3.379   1.254  0.00  0.00    +0.000 A 
ATOM     22  C   UNL     1      -5.187  -2.077   0.815  0.00  0.00    +0.000 A 
BRANCH  19  20
ATOM     20  O   UNL     1      -5.916  -3.793   2.363  0.00  0.00    +0.000 OA
ATOM     21  C   UNL     1      -7.298  -3.480   2.325  0.00  0.00    +0.000 C 
ENDBRANCH  19  20
ENDBRANCH  13  14
ENDBRANCH  11  12
BRANCH  34  35
ATOM     35  C   UNL     1       1.079   0.043  -0.447  0.00  0.00    +0.000 C 
ATOM     36  O   UNL     1       0.633   0.942  -1.141  0.00  0.00    +0.000 OA
BRANCH  35  37
ATOM     37  C   UNL     1       2.491   0.195  -0.067  0.00  0.00    +0.000 C 
ATOM     38  C   UNL     1       2.895   0.403   1.181  0.00  0.00    +0.000 C 
ATOM     39  O   UNL     1       1.994  -0.016   2.168  0.00  0.00    +0.000 OA
BRANCH  38  40
ATOM     40  C   UNL     1       4.270  -0.050   1.449  0.00  0.00    +0.000 C 
ATOM     41  C   UNL     1       5.282   0.745   1.655  0.00  0.00    +0.000 C 
BRANCH  41  42
ATOM     42  C   UNL     1       6.577   0.554   1.042  0.00  0.00    +0.000 A 
ATOM     43  C   UNL     1       7.579  -0.243   1.561  0.00  0.00    +0.000 A 
ATOM     44  C   UNL     1       8.884   0.044   1.179  0.00  0.00    +0.000 A 
ATOM     45  C   UNL     1       9.175   0.972   0.208  0.00  0.00    +0.000 A 
ATOM     46  O   UNL     1      10.332   1.735   0.180  0.00  0.00    +0.000 OA
ATOM     47  C   UNL     1       8.103   1.458  -0.527  0.00  0.00    +0.000 A 
ATOM     50  C   UNL     1       6.814   1.043  -0.237  0.00  0.00    +0.000 A 
BRANCH  47  48
ATOM     48  O   UNL     1       8.385   2.202  -1.651  0.00  0.00    +0.000 OA
ATOM     49  C   UNL     1       9.522   2.026  -2.457  0.00  0.00    +0.000 C 
ENDBRANCH  47  48
ENDBRANCH  41  42
ENDBRANCH  38  40
ENDBRANCH  35  37
ENDBRANCH  34  35
TORSDOF 14
