REMARK  Name = 
REMARK  8 active torsions:
REMARK  status: ('A' for Active; 'I' for Inactive)
REMARK    1  A    between atoms: C_2  and  C_3
REMARK    2  A    between atoms: C_2  and  C_13
REMARK    3  A    between atoms: C_4  and  C_5
REMARK    4  A    between atoms: C_5  and  C_6
REMARK    5  A    between atoms: C_13  and  C_14
REMARK    6  A    between atoms: C_14  and  C_16
REMARK    7  A    between atoms: C_17  and  C_18
REMARK    8  A    between atoms: C_18  and  C_19
REMARK                            x       y       z     vdW  Elec       q    Type
REMARK                         _______ _______ _______ _____ _____    ______ ____
ROOT
ATOM     13  C   UNL     1       0.250  -1.915   0.648  0.00  0.00    +0.000 C 
ENDROOT
BRANCH  13   2
ATOM      1  O   UNL     1      -1.533  -3.450   0.516  0.00  0.00    +0.000 OA
ATOM      2  C   UNL     1      -1.081  -2.333   0.119  0.00  0.00    +0.000 C 
BRANCH   2   3
ATOM      3  C   UNL     1      -2.042  -1.413  -0.447  0.00  0.00    +0.000 C 
ATOM      4  C   UNL     1      -1.842  -0.145  -0.684  0.00  0.00    +0.000 C 
BRANCH   4   5
ATOM      5  C   UNL     1      -2.727   0.970  -0.361  0.00  0.00    +0.000 C 
BRANCH   5   6
ATOM      6  C   UNL     1      -4.060   0.597   0.126  0.00  0.00    +0.000 A 
ATOM      7  C   UNL     1      -4.997   1.620   0.219  0.00  0.00    +0.000 A 
ATOM      8  C   UNL     1      -6.355   1.349   0.110  0.00  0.00    +0.000 A 
ATOM      9  C   UNL     1      -6.795   0.093  -0.289  0.00  0.00    +0.000 A 
ATOM     10  O   UNL     1      -7.836  -0.070  -1.204  0.00  0.00    +0.000 OA
ATOM     11  C   UNL     1      -5.914  -0.952  -0.044  0.00  0.00    +0.000 A 
ATOM     12  C   UNL     1      -4.572  -0.674   0.178  0.00  0.00    +0.000 A 
ENDBRANCH   5   6
ENDBRANCH   4   5
ENDBRANCH   2   3
ENDBRANCH  13   2
BRANCH  13  14
ATOM     14  C   UNL     1       1.135  -1.522  -0.492  0.00  0.00    +0.000 C 
ATOM     15  O   UNL     1       0.892  -2.056  -1.616  0.00  0.00    +0.000 OA
BRANCH  14  16
ATOM     16  C   UNL     1       1.551  -0.115  -0.550  0.00  0.00    +0.000 C 
ATOM     17  C   UNL     1       2.612   0.130  -1.320  0.00  0.00    +0.000 C 
BRANCH  17  18
ATOM     18  C   UNL     1       3.817  -0.709  -1.032  0.00  0.00    +0.000 C 
BRANCH  18  19
ATOM     19  C   UNL     1       4.752   0.159  -0.249  0.00  0.00    +0.000 A 
ATOM     20  C   UNL     1       6.063   0.354  -0.603  0.00  0.00    +0.000 A 
ATOM     21  C   UNL     1       6.760   1.399  -0.009  0.00  0.00    +0.000 A 
ATOM     22  C   UNL     1       6.071   2.355   0.712  0.00  0.00    +0.000 A 
ATOM     23  O   UNL     1       6.744   3.441   1.242  0.00  0.00    +0.000 OA
ATOM     24  C   UNL     1       4.926   1.937   1.355  0.00  0.00    +0.000 A 
ATOM     25  C   UNL     1       4.181   0.951   0.722  0.00  0.00    +0.000 A 
ENDBRANCH  18  19
ENDBRANCH  17  18
ENDBRANCH  14  16
ENDBRANCH  13  14
TORSDOF 8
