REMARK  Name = 
REMARK  8 active torsions:
REMARK  status: ('A' for Active; 'I' for Inactive)
REMARK    1  A    between atoms: C_2  and  O_3
REMARK    2  A    between atoms: C_2  and  C_31
REMARK    3  A    between atoms: O_3  and  C_4
REMARK    4  A    between atoms: C_4  and  C_5
REMARK    5  A    between atoms: C_7  and  O_8
REMARK    6  A    between atoms: O_8  and  C_9
REMARK    7  A    between atoms: C_12  and  C_13
REMARK    8  A    between atoms: C_14  and  C_15
REMARK                            x       y       z     vdW  Elec       q    Type
REMARK                         _______ _______ _______ _____ _____    ______ ____
ROOT
ATOM      5  C   UNL     1      -1.370  -1.607  -0.758  0.00  0.00    +0.000 C 
ATOM      6  O   UNL     1      -1.528  -0.086  -0.793  0.00  0.00    +0.000 OA
ATOM      7  C   UNL     1      -0.140   0.375  -0.244  0.00  0.00    +0.000 C 
ATOM     25  C   UNL     1       0.537   0.329  -1.878  0.00  0.00    +0.000 C 
ATOM     26  O   UNL     1       1.931   0.620  -1.388  0.00  0.00    +0.000 OA
ATOM     27  C   UNL     1       0.829  -1.371  -1.864  0.00  0.00    +0.000 C 
ATOM     28  O   UNL     1       1.326  -1.298  -3.293  0.00  0.00    +0.000 OA
ATOM     29  C   UNL     1      -0.789  -1.667  -2.406  0.00  0.00    +0.000 C 
ATOM     30  O   UNL     1      -0.580  -3.158  -2.306  0.00  0.00    +0.000 OA
ENDROOT
BRANCH   5   4
ATOM      4  C   UNL     1      -2.934  -1.793  -1.291  0.00  0.00    +0.000 C 
BRANCH   4   3
ATOM      3  O   UNL     1      -3.689  -1.304  -0.180  0.00  0.00    +0.000 OA
BRANCH   3   2
ATOM      1  O   UNL     1      -5.514  -1.770  -1.096  0.00  0.00    +0.000 OA
ATOM      2  C   UNL     1      -5.032  -1.065  -0.497  0.00  0.00    +0.000 C 
BRANCH   2  31
ATOM     31  C   UNL     1      -5.801   0.035   0.064  0.00  0.00    +0.000 A 
ATOM     32  C   UNL     1      -5.625   1.335  -0.399  0.00  0.00    +0.000 A 
ATOM     33  C   UNL     1      -6.626   2.239  -0.095  0.00  0.00    +0.000 A 
ATOM     34  O   UNL     1      -6.740   3.468  -0.751  0.00  0.00    +0.000 OA
ATOM     35  C   UNL     1      -7.541   2.011   0.918  0.00  0.00    +0.000 A 
ATOM     36  O   UNL     1      -8.768   2.667   0.954  0.00  0.00    +0.000 OA
ATOM     37  C   UNL     1      -7.334   0.873   1.685  0.00  0.00    +0.000 A 
ATOM     38  O   UNL     1      -8.213   0.588   2.736  0.00  0.00    +0.000 OA
ATOM     39  C   UNL     1      -6.371  -0.050   1.329  0.00  0.00    +0.000 A 
ENDBRANCH   2  31
ENDBRANCH   3   2
ENDBRANCH   4   3
ENDBRANCH   5   4
BRANCH   7   8
ATOM      8  O   UNL     1       0.361  -1.056   0.178  0.00  0.00    +0.000 OA
BRANCH   8   9
ATOM      9  C   UNL     1       1.308  -1.122   1.139  0.00  0.00    +0.000 A 
ATOM     10  C   UNL     1       1.750  -2.422   1.383  0.00  0.00    +0.000 A 
ATOM     11  C   UNL     1       3.113  -2.723   1.446  0.00  0.00    +0.000 A 
ATOM     12  C   UNL     1       4.069  -1.736   1.200  0.00  0.00    +0.000 A 
ATOM     23  C   UNL     1       3.592  -0.480   1.561  0.00  0.00    +0.000 A 
ATOM     24  C   UNL     1       2.225  -0.187   1.534  0.00  0.00    +0.000 A 
BRANCH  12  13
ATOM     13  C   UNL     1       5.150  -1.967   0.249  0.00  0.00    +0.000 C 
ATOM     14  C   UNL     1       5.332  -1.083  -0.738  0.00  0.00    +0.000 C 
BRANCH  14  15
ATOM     15  C   UNL     1       5.695   0.212  -0.136  0.00  0.00    +0.000 A 
ATOM     16  C   UNL     1       6.970   0.217   0.420  0.00  0.00    +0.000 A 
ATOM     17  C   UNL     1       7.679   1.352   0.682  0.00  0.00    +0.000 A 
ATOM     18  O   UNL     1       9.049   1.234   0.938  0.00  0.00    +0.000 OA
ATOM     19  C   UNL     1       7.123   2.555   0.316  0.00  0.00    +0.000 A 
ATOM     20  C   UNL     1       5.945   2.576  -0.418  0.00  0.00    +0.000 A 
ATOM     21  O   UNL     1       5.402   3.844  -0.659  0.00  0.00    +0.000 OA
ATOM     22  C   UNL     1       5.209   1.411  -0.607  0.00  0.00    +0.000 A 
ENDBRANCH  14  15
ENDBRANCH  12  13
ENDBRANCH   8   9
ENDBRANCH   7   8
TORSDOF 8
