REMARK  Name = 
REMARK  8 active torsions:
REMARK  status: ('A' for Active; 'I' for Inactive)
REMARK    1  A    between atoms: C_2  and  O_3
REMARK    2  A    between atoms: C_2  and  C_31
REMARK    3  A    between atoms: O_3  and  C_4
REMARK    4  A    between atoms: C_4  and  C_5
REMARK    5  A    between atoms: C_7  and  O_8
REMARK    6  A    between atoms: O_8  and  C_9
REMARK    7  A    between atoms: C_12  and  C_13
REMARK    8  A    between atoms: C_14  and  C_15
REMARK                            x       y       z     vdW  Elec       q    Type
REMARK                         _______ _______ _______ _____ _____    ______ ____
ROOT
ATOM      5  C   UNL     1      -1.980  -0.663  -0.474  0.00  0.00    +0.000 C 
ATOM      6  O   UNL     1      -1.123  -1.118   0.679  0.00  0.00    +0.000 OA
ATOM      7  C   UNL     1       0.102  -0.229   0.489  0.00  0.00    +0.000 C 
ATOM     25  C   UNL     1       0.128  -0.483  -1.228  0.00  0.00    +0.000 C 
ATOM     26  O   UNL     1       1.617  -0.575  -1.300  0.00  0.00    +0.000 OA
ATOM     27  C   UNL     1      -0.056  -2.171  -1.106  0.00  0.00    +0.000 C 
ATOM     28  O   UNL     1       0.299  -2.354  -2.548  0.00  0.00    +0.000 OA
ATOM     29  C   UNL     1      -1.720  -2.050  -1.462  0.00  0.00    +0.000 C 
ATOM     30  O   UNL     1      -2.026  -3.078  -0.418  0.00  0.00    +0.000 OA
ENDROOT
BRANCH   5   4
ATOM      4  C   UNL     1      -3.329  -1.259   0.222  0.00  0.00    +0.000 C 
BRANCH   4   3
ATOM      3  O   UNL     1      -4.393  -1.111  -0.372  0.00  0.00    +0.000 OA
BRANCH   3   2
ATOM      1  O   UNL     1      -4.977  -1.062  -1.936  0.00  0.00    +0.000 OA
ATOM      2  C   UNL     1      -5.404  -0.890  -1.187  0.00  0.00    +0.000 C 
BRANCH   2  31
ATOM     31  C   UNL     1      -6.503   0.021  -0.804  0.00  0.00    +0.000 A 
ATOM     32  C   UNL     1      -6.267   1.377  -1.011  0.00  0.00    +0.000 A 
ATOM     33  C   UNL     1      -6.689   2.357  -0.145  0.00  0.00    +0.000 A 
ATOM     34  O   UNL     1      -6.457   3.693  -0.433  0.00  0.00    +0.000 OA
ATOM     35  C   UNL     1      -7.569   2.031   0.856  0.00  0.00    +0.000 A 
ATOM     36  O   UNL     1      -8.518   2.960   1.296  0.00  0.00    +0.000 OA
ATOM     37  C   UNL     1      -7.612   0.704   1.248  0.00  0.00    +0.000 A 
ATOM     38  O   UNL     1      -8.297   0.417   2.413  0.00  0.00    +0.000 OA
ATOM     39  C   UNL     1      -7.346  -0.251   0.270  0.00  0.00    +0.000 A 
ENDBRANCH   2  31
ENDBRANCH   3   2
ENDBRANCH   4   3
ENDBRANCH   5   4
BRANCH   7   8
ATOM      8  O   UNL     1       1.023  -1.406   0.844  0.00  0.00    +0.000 OA
BRANCH   8   9
ATOM      9  C   UNL     1       2.208  -1.206   1.456  0.00  0.00    +0.000 A 
ATOM     10  C   UNL     1       2.909  -2.400   1.654  0.00  0.00    +0.000 A 
ATOM     11  C   UNL     1       4.231  -2.543   1.224  0.00  0.00    +0.000 A 
ATOM     12  C   UNL     1       4.894  -1.477   0.615  0.00  0.00    +0.000 A 
ATOM     23  C   UNL     1       4.383  -0.262   1.065  0.00  0.00    +0.000 A 
ATOM     24  C   UNL     1       3.045  -0.126   1.446  0.00  0.00    +0.000 A 
BRANCH  12  13
ATOM     13  C   UNL     1       5.527  -1.639  -0.705  0.00  0.00    +0.000 C 
ATOM     14  C   UNL     1       5.531  -0.642  -1.598  0.00  0.00    +0.000 C 
BRANCH  14  15
ATOM     15  C   UNL     1       6.033   0.592  -0.979  0.00  0.00    +0.000 A 
ATOM     16  C   UNL     1       7.350   0.520  -0.541  0.00  0.00    +0.000 A 
ATOM     17  C   UNL     1       7.883   1.561   0.208  0.00  0.00    +0.000 A 
ATOM     18  O   UNL     1       8.951   1.267   1.059  0.00  0.00    +0.000 OA
ATOM     19  C   UNL     1       7.017   2.608   0.490  0.00  0.00    +0.000 A 
ATOM     20  C   UNL     1       6.019   2.881  -0.428  0.00  0.00    +0.000 A 
ATOM     21  O   UNL     1       5.597   4.169  -0.719  0.00  0.00    +0.000 OA
ATOM     22  C   UNL     1       5.520   1.838  -1.202  0.00  0.00    +0.000 A 
ENDBRANCH  14  15
ENDBRANCH  12  13
ENDBRANCH   8   9
ENDBRANCH   7   8
TORSDOF 8
