REMARK  Name = 
REMARK  8 active torsions:
REMARK  status: ('A' for Active; 'I' for Inactive)
REMARK    1  A    between atoms: C_2  and  O_3
REMARK    2  A    between atoms: C_2  and  C_31
REMARK    3  A    between atoms: O_3  and  C_4
REMARK    4  A    between atoms: C_4  and  C_5
REMARK    5  A    between atoms: C_7  and  O_8
REMARK    6  A    between atoms: O_8  and  C_9
REMARK    7  A    between atoms: C_12  and  C_13
REMARK    8  A    between atoms: C_14  and  C_15
REMARK                            x       y       z     vdW  Elec       q    Type
REMARK                         _______ _______ _______ _____ _____    ______ ____
ROOT
ATOM      5  C   UNL     1      -2.131  -1.351  -0.276  0.00  0.00    +0.000 C 
ATOM      6  O   UNL     1      -0.754  -1.755  -0.774  0.00  0.00    +0.000 OA
ATOM      7  C   UNL     1      -0.353  -1.323   0.662  0.00  0.00    +0.000 C 
ATOM     25  C   UNL     1       0.614   0.002   0.048  0.00  0.00    +0.000 C 
ATOM     26  O   UNL     1       1.380  -0.835  -0.960  0.00  0.00    +0.000 OA
ATOM     27  C   UNL     1      -0.461   0.639  -1.152  0.00  0.00    +0.000 C 
ATOM     28  O   UNL     1      -0.524  -0.535  -2.118  0.00  0.00    +0.000 OA
ATOM     29  C   UNL     1      -2.003   0.386  -0.398  0.00  0.00    +0.000 C 
ATOM     30  O   UNL     1      -1.507   0.604   1.027  0.00  0.00    +0.000 OA
ENDROOT
BRANCH   5   4
ATOM      4  C   UNL     1      -2.800  -1.476  -1.811  0.00  0.00    +0.000 C 
BRANCH   4   3
ATOM      3  O   UNL     1      -3.836  -0.529  -1.805  0.00  0.00    +0.000 OA
BRANCH   3   2
ATOM      1  O   UNL     1      -5.255  -1.903  -1.246  0.00  0.00    +0.000 OA
ATOM      2  C   UNL     1      -5.052  -0.970  -1.263  0.00  0.00    +0.000 C 
BRANCH   2  31
ATOM     31  C   UNL     1      -5.886   0.026  -0.579  0.00  0.00    +0.000 A 
ATOM     32  C   UNL     1      -5.894   1.346  -1.016  0.00  0.00    +0.000 A 
ATOM     33  C   UNL     1      -6.687   2.220  -0.277  0.00  0.00    +0.000 A 
ATOM     34  O   UNL     1      -7.042   3.430  -0.822  0.00  0.00    +0.000 OA
ATOM     35  C   UNL     1      -7.380   1.796   0.847  0.00  0.00    +0.000 A 
ATOM     36  O   UNL     1      -8.629   2.307   1.213  0.00  0.00    +0.000 OA
ATOM     37  C   UNL     1      -6.843   0.698   1.499  0.00  0.00    +0.000 A 
ATOM     38  O   UNL     1      -7.320   0.343   2.748  0.00  0.00    +0.000 OA
ATOM     39  C   UNL     1      -5.943  -0.101   0.803  0.00  0.00    +0.000 A 
ENDBRANCH   2  31
ENDBRANCH   3   2
ENDBRANCH   4   3
ENDBRANCH   5   4
BRANCH   7   8
ATOM      8  O   UNL     1       0.834  -2.347   0.683  0.00  0.00    +0.000 OA
BRANCH   8   9
ATOM      9  C   UNL     1       2.043  -2.193   1.085  0.00  0.00    +0.000 A 
ATOM     10  C   UNL     1       2.749  -3.353   0.711  0.00  0.00    +0.000 A 
ATOM     11  C   UNL     1       4.043  -3.277   0.201  0.00  0.00    +0.000 A 
ATOM     12  C   UNL     1       4.747  -2.075   0.239  0.00  0.00    +0.000 A 
ATOM     23  C   UNL     1       4.223  -1.180   1.154  0.00  0.00    +0.000 A 
ATOM     24  C   UNL     1       2.903  -1.285   1.609  0.00  0.00    +0.000 A 
BRANCH  12  13
ATOM     13  C   UNL     1       5.372  -1.722  -1.044  0.00  0.00    +0.000 C 
ATOM     14  C   UNL     1       5.163  -0.517  -1.585  0.00  0.00    +0.000 C 
BRANCH  14  15
ATOM     15  C   UNL     1       5.544   0.534  -0.625  0.00  0.00    +0.000 A 
ATOM     16  C   UNL     1       6.867   0.416  -0.207  0.00  0.00    +0.000 A 
ATOM     17  C   UNL     1       7.525   1.352   0.528  0.00  0.00    +0.000 A 
ATOM     18  O   UNL     1       8.839   1.056   0.897  0.00  0.00    +0.000 OA
ATOM     19  C   UNL     1       7.056   2.654   0.418  0.00  0.00    +0.000 A 
ATOM     20  C   UNL     1       5.830   2.889  -0.195  0.00  0.00    +0.000 A 
ATOM     21  O   UNL     1       5.464   4.181  -0.520  0.00  0.00    +0.000 OA
ATOM     22  C   UNL     1       5.106   1.848  -0.761  0.00  0.00    +0.000 A 
ENDBRANCH  14  15
ENDBRANCH  12  13
ENDBRANCH   8   9
ENDBRANCH   7   8
TORSDOF 8
