REMARK  Name = 
REMARK  8 active torsions:
REMARK  status: ('A' for Active; 'I' for Inactive)
REMARK    1  A    between atoms: C_2  and  O_3
REMARK    2  A    between atoms: C_2  and  C_31
REMARK    3  A    between atoms: O_3  and  C_4
REMARK    4  A    between atoms: C_5  and  O_6
REMARK    5  A    between atoms: O_6  and  C_7
REMARK    6  A    between atoms: C_10  and  C_11
REMARK    7  A    between atoms: C_12  and  C_13
REMARK    8  A    between atoms: C_24  and  C_25
REMARK                            x       y       z     vdW  Elec       q    Type
REMARK                         _______ _______ _______ _____ _____    ______ ____
ROOT
ATOM      4  C   UNL     1      -2.516  -2.182   0.848  0.00  0.00    +0.000 C 
ATOM      5  C   UNL     1      -0.981  -2.753   0.317  0.00  0.00    +0.000 C 
ATOM     23  O   UNL     1      -1.275  -4.125   0.899  0.00  0.00    +0.000 OA
ATOM     24  C   UNL     1      -1.558  -4.899  -0.371  0.00  0.00    +0.000 C 
ATOM     27  C   UNL     1      -2.246  -3.578  -1.226  0.00  0.00    +0.000 C 
ATOM     28  O   UNL     1      -3.144  -4.490  -1.995  0.00  0.00    +0.000 OA
ATOM     29  C   UNL     1      -3.405  -3.373   0.004  0.00  0.00    +0.000 C 
ATOM     30  O   UNL     1      -4.233  -2.452  -0.844  0.00  0.00    +0.000 OA
ENDROOT
BRANCH  24  25
ATOM     25  C   UNL     1      -0.078  -4.556  -0.988  0.00  0.00    +0.000 C 
ATOM     26  O   UNL     1       0.743  -5.133  -0.007  0.00  0.00    +0.000 OA
ENDBRANCH  24  25
BRANCH   4   3
ATOM      3  O   UNL     1      -2.552  -1.091  -0.207  0.00  0.00    +0.000 OA
BRANCH   3   2
ATOM      1  O   UNL     1      -3.096  -0.027   0.984  0.00  0.00    +0.000 OA
ATOM      2  C   UNL     1      -3.079   0.049   0.443  0.00  0.00    +0.000 C 
BRANCH   2  31
ATOM     31  C   UNL     1      -3.994   0.974  -0.248  0.00  0.00    +0.000 A 
ATOM     32  C   UNL     1      -3.421   1.909  -1.125  0.00  0.00    +0.000 A 
ATOM     33  C   UNL     1      -4.159   3.037  -1.468  0.00  0.00    +0.000 A 
ATOM     34  O   UNL     1      -3.712   3.886  -2.476  0.00  0.00    +0.000 OA
ATOM     35  C   UNL     1      -5.232   3.456  -0.699  0.00  0.00    +0.000 A 
ATOM     36  O   UNL     1      -5.822   4.701  -0.812  0.00  0.00    +0.000 OA
ATOM     37  C   UNL     1      -5.609   2.693   0.401  0.00  0.00    +0.000 A 
ATOM     38  O   UNL     1      -6.504   3.180   1.363  0.00  0.00    +0.000 OA
ATOM     39  C   UNL     1      -4.848   1.592   0.667  0.00  0.00    +0.000 A 
ENDBRANCH   2  31
ENDBRANCH   3   2
ENDBRANCH   4   3
BRANCH   5   6
ATOM      6  O   UNL     1      -0.293  -2.252   1.611  0.00  0.00    +0.000 OA
BRANCH   6   7
ATOM      7  C   UNL     1       0.753  -1.401   1.232  0.00  0.00    +0.000 A 
ATOM      8  C   UNL     1       0.589  -0.612   0.098  0.00  0.00    +0.000 A 
ATOM      9  C   UNL     1       1.644   0.093  -0.471  0.00  0.00    +0.000 A 
ATOM     10  C   UNL     1       2.755   0.389   0.316  0.00  0.00    +0.000 A 
ATOM     21  C   UNL     1       2.899  -0.438   1.417  0.00  0.00    +0.000 A 
ATOM     22  C   UNL     1       2.041  -1.502   1.676  0.00  0.00    +0.000 A 
BRANCH  10  11
ATOM     11  C   UNL     1       2.978   1.848   0.399  0.00  0.00    +0.000 C 
ATOM     12  C   UNL     1       3.928   2.126   1.261  0.00  0.00    +0.000 C 
BRANCH  12  13
ATOM     13  C   UNL     1       5.232   1.819   0.701  0.00  0.00    +0.000 A 
ATOM     14  C   UNL     1       6.033   2.958   0.615  0.00  0.00    +0.000 A 
ATOM     15  C   UNL     1       7.052   3.076  -0.301  0.00  0.00    +0.000 A 
ATOM     16  O   UNL     1       7.661   4.293  -0.622  0.00  0.00    +0.000 OA
ATOM     17  C   UNL     1       7.517   1.872  -0.812  0.00  0.00    +0.000 A 
ATOM     18  C   UNL     1       6.875   0.672  -0.526  0.00  0.00    +0.000 A 
ATOM     19  O   UNL     1       7.501  -0.522  -0.732  0.00  0.00    +0.000 OA
ATOM     20  C   UNL     1       5.560   0.763  -0.087  0.00  0.00    +0.000 A 
ENDBRANCH  12  13
ENDBRANCH  10  11
ENDBRANCH   6   7
ENDBRANCH   5   6
TORSDOF 8
