REMARK  Name = 
REMARK  5 active torsions:
REMARK  status: ('A' for Active; 'I' for Inactive)
REMARK    1  A    between atoms: C_2  and  C_3
REMARK    2  A    between atoms: C_5  and  O_6
REMARK    3  A    between atoms: O_6  and  C_7
REMARK    4  A    between atoms: C_10  and  C_11
REMARK    5  A    between atoms: C_12  and  C_13
REMARK                            x       y       z     vdW  Elec       q    Type
REMARK                         _______ _______ _______ _____ _____    ______ ____
ROOT
ATOM      7  C   UNL     1       1.077  -1.092  -1.298  0.00  0.00    +0.000 A 
ATOM      8  C   UNL     1       0.114  -1.916  -0.715  0.00  0.00    +0.000 A 
ATOM      9  C   UNL     1      -1.147  -1.413  -0.365  0.00  0.00    +0.000 A 
ATOM     10  C   UNL     1      -1.390  -0.040  -0.412  0.00  0.00    +0.000 A 
ATOM     21  C   UNL     1      -0.706   0.530  -1.485  0.00  0.00    +0.000 A 
ATOM     22  C   UNL     1       0.461  -0.042  -1.988  0.00  0.00    +0.000 A 
ENDROOT
BRANCH  10  11
ATOM     11  C   UNL     1      -1.661   0.760   0.797  0.00  0.00    +0.000 C 
ATOM     12  C   UNL     1      -2.733   0.411   1.472  0.00  0.00    +0.000 C 
BRANCH  12  13
ATOM     13  C   UNL     1      -3.968   0.369   0.694  0.00  0.00    +0.000 A 
ATOM     14  C   UNL     1      -4.148   1.389  -0.224  0.00  0.00    +0.000 A 
ATOM     15  C   UNL     1      -5.282   1.464  -1.015  0.00  0.00    +0.000 A 
ATOM     16  O   UNL     1      -5.517   2.615  -1.720  0.00  0.00    +0.000 OA
ATOM     17  C   UNL     1      -6.128   0.386  -0.946  0.00  0.00    +0.000 A 
ATOM     18  C   UNL     1      -5.800  -0.785  -0.275  0.00  0.00    +0.000 A 
ATOM     19  O   UNL     1      -6.644  -1.889  -0.250  0.00  0.00    +0.000 OA
ATOM     20  C   UNL     1      -4.659  -0.801   0.489  0.00  0.00    +0.000 A 
ENDBRANCH  12  13
ENDBRANCH  10  11
BRANCH   7   6
ATOM      6  O   UNL     1       2.384  -1.010  -0.861  0.00  0.00    +0.000 OA
BRANCH   6   5
ATOM      3  C   UNL     1       4.464  -0.887  -0.696  0.00  0.00    +0.000 C 
ATOM      4  O   UNL     1       4.088  -1.302   0.718  0.00  0.00    +0.000 OA
ATOM      5  C   UNL     1       2.542  -1.232   0.701  0.00  0.00    +0.000 C 
ATOM     23  C   UNL     1       2.448   0.493   1.097  0.00  0.00    +0.000 C 
ATOM     24  O   UNL     1       3.744   0.551   1.865  0.00  0.00    +0.000 OA
ATOM     25  C   UNL     1       3.048   1.057  -0.422  0.00  0.00    +0.000 C 
ATOM     26  O   UNL     1       3.181   2.454   0.160  0.00  0.00    +0.000 OA
ATOM     27  C   UNL     1       4.716   0.741  -0.109  0.00  0.00    +0.000 C 
ATOM     28  O   UNL     1       5.060   1.211  -1.499  0.00  0.00    +0.000 OA
BRANCH   3   2
ATOM      1  O   UNL     1       6.402  -0.726   0.371  0.00  0.00    +0.000 OA
ATOM      2  C   UNL     1       6.054  -1.298  -0.401  0.00  0.00    +0.000 C 
ENDBRANCH   3   2
ENDBRANCH   6   5
ENDBRANCH   7   6
TORSDOF 5
