REMARK  Name = 
REMARK  8 active torsions:
REMARK  status: ('A' for Active; 'I' for Inactive)
REMARK    1  A    between atoms: C_2  and  O_3
REMARK    2  A    between atoms: C_2  and  C_31
REMARK    3  A    between atoms: O_3  and  C_4
REMARK    4  A    between atoms: C_5  and  O_6
REMARK    5  A    between atoms: O_6  and  C_7
REMARK    6  A    between atoms: C_10  and  C_11
REMARK    7  A    between atoms: C_12  and  C_13
REMARK    8  A    between atoms: C_24  and  C_25
REMARK                            x       y       z     vdW  Elec       q    Type
REMARK                         _______ _______ _______ _____ _____    ______ ____
ROOT
ATOM      4  C   UNL     1      -1.477   0.523  -0.321  0.00  0.00    +0.000 C 
ATOM      5  C   UNL     1      -1.126   1.106   1.266  0.00  0.00    +0.000 C 
ATOM     23  O   UNL     1      -0.175   2.187   0.772  0.00  0.00    +0.000 OA
ATOM     24  C   UNL     1      -1.025   3.418   1.014  0.00  0.00    +0.000 C 
ATOM     27  C   UNL     1      -2.464   2.689   0.408  0.00  0.00    +0.000 C 
ATOM     28  O   UNL     1      -2.937   3.925  -0.288  0.00  0.00    +0.000 OA
ATOM     29  C   UNL     1      -1.726   2.075  -0.998  0.00  0.00    +0.000 C 
ATOM     30  O   UNL     1      -3.051   1.793  -1.644  0.00  0.00    +0.000 OA
ENDROOT
BRANCH  24  25
ATOM     25  C   UNL     1      -0.544   4.100  -0.397  0.00  0.00    +0.000 C 
ATOM     26  O   UNL     1      -1.083   5.352  -0.419  0.00  0.00    +0.000 OA
ENDBRANCH  24  25
BRANCH   4   3
ATOM      3  O   UNL     1      -2.920   0.254   0.032  0.00  0.00    +0.000 OA
BRANCH   3   2
ATOM      1  O   UNL     1      -2.741  -0.448   1.721  0.00  0.00    +0.000 OA
ATOM      2  C   UNL     1      -3.187  -0.383   1.243  0.00  0.00    +0.000 C 
BRANCH   2  31
ATOM     31  C   UNL     1      -4.556  -0.921   1.332  0.00  0.00    +0.000 A 
ATOM     32  C   UNL     1      -4.646  -2.308   1.366  0.00  0.00    +0.000 A 
ATOM     33  C   UNL     1      -5.694  -2.968   0.841  0.00  0.00    +0.000 A 
ATOM     34  O   UNL     1      -5.933  -4.302   1.132  0.00  0.00    +0.000 OA
ATOM     35  C   UNL     1      -6.684  -2.259   0.154  0.00  0.00    +0.000 A 
ATOM     36  O   UNL     1      -7.309  -2.880  -0.886  0.00  0.00    +0.000 OA
ATOM     37  C   UNL     1      -6.780  -0.885   0.354  0.00  0.00    +0.000 A 
ATOM     38  O   UNL     1      -7.562  -0.195  -0.576  0.00  0.00    +0.000 OA
ATOM     39  C   UNL     1      -5.638  -0.258   0.841  0.00  0.00    +0.000 A 
ENDBRANCH   2  31
ENDBRANCH   3   2
ENDBRANCH   4   3
BRANCH   5   6
ATOM      6  O   UNL     1       0.014   0.080   1.449  0.00  0.00    +0.000 OA
BRANCH   6   7
ATOM      7  C   UNL     1       0.915  -0.115   0.439  0.00  0.00    +0.000 A 
ATOM      8  C   UNL     1       2.248   0.111   0.774  0.00  0.00    +0.000 A 
ATOM      9  C   UNL     1       3.304  -0.430   0.104  0.00  0.00    +0.000 A 
ATOM     10  C   UNL     1       3.052  -1.364  -0.892  0.00  0.00    +0.000 A 
ATOM     21  C   UNL     1       1.797  -1.936  -0.939  0.00  0.00    +0.000 A 
ATOM     22  C   UNL     1       0.757  -1.293  -0.287  0.00  0.00    +0.000 A 
BRANCH  10  11
ATOM     11  C   UNL     1       3.885  -1.472  -2.096  0.00  0.00    +0.000 C 
ATOM     12  C   UNL     1       4.933  -0.664  -2.212  0.00  0.00    +0.000 C 
BRANCH  12  13
ATOM     13  C   UNL     1       5.705  -0.456  -0.981  0.00  0.00    +0.000 A 
ATOM     14  C   UNL     1       6.381  -1.562  -0.488  0.00  0.00    +0.000 A 
ATOM     15  C   UNL     1       7.561  -1.457   0.230  0.00  0.00    +0.000 A 
ATOM     16  O   UNL     1       8.347  -2.581   0.504  0.00  0.00    +0.000 OA
ATOM     17  C   UNL     1       8.191  -0.221   0.303  0.00  0.00    +0.000 A 
ATOM     18  C   UNL     1       7.538   0.909  -0.168  0.00  0.00    +0.000 A 
ATOM     19  O   UNL     1       8.319   2.064  -0.279  0.00  0.00    +0.000 OA
ATOM     20  C   UNL     1       6.312   0.776  -0.780  0.00  0.00    +0.000 A 
ENDBRANCH  12  13
ENDBRANCH  10  11
ENDBRANCH   6   7
ENDBRANCH   5   6
TORSDOF 8
