REMARK  Name = 
REMARK  3 active torsions:
REMARK  status: ('A' for Active; 'I' for Inactive)
REMARK    1  A    between atoms: O_2  and  C_3
REMARK    2  A    between atoms: C_6  and  C_7
REMARK    3  A    between atoms: C_8  and  C_9
REMARK                            x       y       z     vdW  Elec       q    Type
REMARK                         _______ _______ _______ _____ _____    ______ ____
ROOT
ATOM      7  C   UNL     1       0.140  -1.371  -0.841  0.00  0.00    +0.000 C 
ATOM      8  C   UNL     1      -0.962  -1.377  -0.133  0.00  0.00    +0.000 C 
ENDROOT
BRANCH   8   9
ATOM      9  C   UNL     1      -2.073  -0.439  -0.338  0.00  0.00    +0.000 A 
ATOM     10  C   UNL     1      -1.845   0.887  -0.688  0.00  0.00    +0.000 A 
ATOM     11  C   UNL     1      -2.607   1.929  -0.236  0.00  0.00    +0.000 A 
ATOM     12  O   UNL     1      -2.167   3.235  -0.361  0.00  0.00    +0.000 OA
ATOM     13  C   UNL     1      -3.854   1.643   0.306  0.00  0.00    +0.000 A 
ATOM     14  C   UNL     1      -4.127   0.346   0.644  0.00  0.00    +0.000 A 
ATOM     15  O   UNL     1      -5.446   0.025   0.965  0.00  0.00    +0.000 OA
ATOM     16  C   UNL     1      -3.167  -0.647   0.496  0.00  0.00    +0.000 A 
ENDBRANCH   8   9
BRANCH   7   6
ATOM      3  C   UNL     1       4.025  -0.489   0.210  0.00  0.00    +0.000 A 
ATOM      4  C   UNL     1       3.805  -1.352  -0.836  0.00  0.00    +0.000 A 
ATOM      5  C   UNL     1       2.524  -1.772  -1.162  0.00  0.00    +0.000 A 
ATOM      6  C   UNL     1       1.477  -1.584  -0.271  0.00  0.00    +0.000 A 
ATOM     17  C   UNL     1       1.829  -1.087   0.978  0.00  0.00    +0.000 A 
ATOM     18  C   UNL     1       3.050  -0.460   1.196  0.00  0.00    +0.000 A 
BRANCH   3   2
ATOM      1  C   UNL     1       4.486   1.926   0.290  0.00  0.00    +0.000 C 
ATOM      2  O   UNL     1       4.910   0.590   0.142  0.00  0.00    +0.000 OA
ENDBRANCH   3   2
ENDBRANCH   7   6
TORSDOF 3
