REMARK  Name = 
REMARK  9 active torsions:
REMARK  status: ('A' for Active; 'I' for Inactive)
REMARK    1  A    between atoms: C_2  and  C_4
REMARK    2  A    between atoms: C_4  and  C_5
REMARK    3  A    between atoms: C_5  and  C_6
REMARK    4  A    between atoms: C_6  and  C_7
REMARK    5  A    between atoms: C_7  and  C_8
REMARK    6  A    between atoms: C_8  and  O_9
REMARK    7  A    between atoms: O_9  and  C_10
REMARK    8  A    between atoms: C_13  and  C_14
REMARK    9  A    between atoms: C_15  and  C_16
REMARK                            x       y       z     vdW  Elec       q    Type
REMARK                         _______ _______ _______ _____ _____    ______ ____
ROOT
ATOM     10  C   UNL     1       1.645   0.335  -0.230  0.00  0.00    +0.000 A 
ATOM     11  C   UNL     1       1.341   0.453   1.120  0.00  0.00    +0.000 A 
ATOM     12  C   UNL     1       0.157  -0.121   1.568  0.00  0.00    +0.000 A 
ATOM     13  C   UNL     1      -0.896  -0.405   0.707  0.00  0.00    +0.000 A 
ATOM     24  C   UNL     1      -0.519  -0.696  -0.599  0.00  0.00    +0.000 A 
ATOM     25  C   UNL     1       0.725  -0.286  -1.061  0.00  0.00    +0.000 A 
ENDROOT
BRANCH  13  14
ATOM     14  C   UNL     1      -2.265   0.006   1.043  0.00  0.00    +0.000 C 
ATOM     15  C   UNL     1      -3.235  -0.838   1.301  0.00  0.00    +0.000 C 
BRANCH  15  16
ATOM     16  C   UNL     1      -4.587  -0.422   0.902  0.00  0.00    +0.000 A 
ATOM     17  C   UNL     1      -4.940   0.922   0.879  0.00  0.00    +0.000 A 
ATOM     18  C   UNL     1      -6.016   1.388   0.133  0.00  0.00    +0.000 A 
ATOM     19  O   UNL     1      -6.014   2.766  -0.108  0.00  0.00    +0.000 OA
ATOM     20  C   UNL     1      -6.389   0.598  -0.948  0.00  0.00    +0.000 A 
ATOM     21  C   UNL     1      -6.106  -0.755  -0.949  0.00  0.00    +0.000 A 
ATOM     22  O   UNL     1      -6.838  -1.556  -1.795  0.00  0.00    +0.000 OA
ATOM     23  C   UNL     1      -5.404  -1.252   0.143  0.00  0.00    +0.000 A 
ENDBRANCH  15  16
ENDBRANCH  13  14
BRANCH  10   9
ATOM      9  O   UNL     1       2.911   0.709  -0.661  0.00  0.00    +0.000 OA
BRANCH   9   8
ATOM      8  C   UNL     1       3.754  -0.287  -1.209  0.00  0.00    +0.000 C 
BRANCH   8   7
ATOM      7  C   UNL     1       3.589  -1.510  -0.318  0.00  0.00    +0.000 C 
BRANCH   7   6
ATOM      6  C   UNL     1       4.208  -1.203   1.040  0.00  0.00    +0.000 C 
BRANCH   6   5
ATOM      5  C   UNL     1       5.699  -0.952   0.870  0.00  0.00    +0.000 C 
BRANCH   5   4
ATOM      4  C   UNL     1       5.864   0.530   0.562  0.00  0.00    +0.000 C 
BRANCH   4   2
ATOM      1  O   UNL     1       7.824   1.328   1.620  0.00  0.00    +0.000 OA
ATOM      2  C   UNL     1       7.331   0.801   0.597  0.00  0.00    +0.000 C 
ATOM      3  O   UNL     1       8.165   0.447  -0.441  0.00  0.00    +0.000 OA
ENDBRANCH   4   2
ENDBRANCH   5   4
ENDBRANCH   6   5
ENDBRANCH   7   6
ENDBRANCH   8   7
ENDBRANCH   9   8
ENDBRANCH  10   9
TORSDOF 9
