REMARK  Name = 
REMARK  8 active torsions:
REMARK  status: ('A' for Active; 'I' for Inactive)
REMARK    1  A    between atoms: C_2  and  O_3
REMARK    2  A    between atoms: C_2  and  C_31
REMARK    3  A    between atoms: O_3  and  C_4
REMARK    4  A    between atoms: C_9  and  C_10
REMARK    5  A    between atoms: C_13  and  O_14
REMARK    6  A    between atoms: O_14  and  C_15
REMARK    7  A    between atoms: C_18  and  C_19
REMARK    8  A    between atoms: C_20  and  C_21
REMARK                            x       y       z     vdW  Elec       q    Type
REMARK                         _______ _______ _______ _____ _____    ______ ____
ROOT
ATOM      4  C   UNL     1      -2.572   0.485  -0.058  0.00  0.00    +0.000 C 
ATOM      5  C   UNL     1      -2.691  -1.201  -0.221  0.00  0.00    +0.000 C 
ATOM      6  O   UNL     1      -1.905  -1.407  -1.480  0.00  0.00    +0.000 OA
ATOM      7  C   UNL     1      -1.483  -1.609   0.907  0.00  0.00    +0.000 C 
ATOM      8  O   UNL     1      -2.466  -2.421   1.689  0.00  0.00    +0.000 OA
ATOM      9  C   UNL     1      -1.825  -0.204   1.821  0.00  0.00    +0.000 C 
ATOM     12  O   UNL     1      -0.571   0.431   1.310  0.00  0.00    +0.000 OA
ATOM     13  C   UNL     1      -0.898   0.850  -0.119  0.00  0.00    +0.000 C 
ENDROOT
BRANCH   9  10
ATOM     10  C   UNL     1      -1.060  -0.830   3.131  0.00  0.00    +0.000 C 
ATOM     11  O   UNL     1      -2.165  -0.860   4.002  0.00  0.00    +0.000 OA
ENDBRANCH   9  10
BRANCH   4   3
ATOM      3  O   UNL     1      -2.869   0.709  -1.536  0.00  0.00    +0.000 OA
BRANCH   3   2
ATOM      1  O   UNL     1      -3.868   1.569  -1.916  0.00  0.00    +0.000 OA
ATOM      2  C   UNL     1      -4.000   1.374  -1.880  0.00  0.00    +0.000 C 
BRANCH   2  31
ATOM     31  C   UNL     1      -5.414   1.232  -1.709  0.00  0.00    +0.000 A 
ATOM     32  C   UNL     1      -6.146   2.295  -1.178  0.00  0.00    +0.000 A 
ATOM     33  C   UNL     1      -7.124   2.094  -0.205  0.00  0.00    +0.000 A 
ATOM     34  O   UNL     1      -7.729   3.140   0.476  0.00  0.00    +0.000 OA
ATOM     35  C   UNL     1      -7.340   0.819   0.313  0.00  0.00    +0.000 A 
ATOM     36  O   UNL     1      -7.356   0.613   1.698  0.00  0.00    +0.000 OA
ATOM     37  C   UNL     1      -7.005  -0.200  -0.577  0.00  0.00    +0.000 A 
ATOM     38  O   UNL     1      -7.251  -1.501  -0.122  0.00  0.00    +0.000 OA
ATOM     39  C   UNL     1      -6.140   0.048  -1.642  0.00  0.00    +0.000 A 
ENDBRANCH   2  31
ENDBRANCH   3   2
ENDBRANCH   4   3
BRANCH  13  14
ATOM     14  O   UNL     1      -0.311  -0.439  -0.700  0.00  0.00    +0.000 OA
BRANCH  14  15
ATOM     15  C   UNL     1       1.053  -0.344  -0.733  0.00  0.00    +0.000 A 
ATOM     16  C   UNL     1       1.837   0.461   0.081  0.00  0.00    +0.000 A 
ATOM     17  C   UNL     1       3.205   0.587  -0.162  0.00  0.00    +0.000 A 
ATOM     18  C   UNL     1       3.880  -0.457  -0.729  0.00  0.00    +0.000 A 
ATOM     29  C   UNL     1       3.095  -1.557  -1.083  0.00  0.00    +0.000 A 
ATOM     30  C   UNL     1       1.722  -1.439  -1.273  0.00  0.00    +0.000 A 
BRANCH  18  19
ATOM     19  C   UNL     1       5.028  -0.310  -1.641  0.00  0.00    +0.000 C 
ATOM     20  C   UNL     1       5.943  -1.125  -1.090  0.00  0.00    +0.000 C 
BRANCH  20  21
ATOM     21  C   UNL     1       6.749  -0.280  -0.236  0.00  0.00    +0.000 A 
ATOM     22  C   UNL     1       6.649  -0.105   1.107  0.00  0.00    +0.000 A 
ATOM     23  C   UNL     1       7.643   0.640   1.740  0.00  0.00    +0.000 A 
ATOM     24  O   UNL     1       7.372   1.406   2.879  0.00  0.00    +0.000 OA
ATOM     25  C   UNL     1       8.818   0.973   1.073  0.00  0.00    +0.000 A 
ATOM     26  C   UNL     1       9.029   0.573  -0.212  0.00  0.00    +0.000 A 
ATOM     27  O   UNL     1      10.121   1.008  -0.971  0.00  0.00    +0.000 OA
ATOM     28  C   UNL     1       8.047  -0.217  -0.754  0.00  0.00    +0.000 A 
ENDBRANCH  20  21
ENDBRANCH  18  19
ENDBRANCH  14  15
ENDBRANCH  13  14
TORSDOF 8
