REMARK  Name = 
REMARK  5 active torsions:
REMARK  status: ('A' for Active; 'I' for Inactive)
REMARK    1  A    between atoms: C_2  and  C_3
REMARK    2  A    between atoms: C_5  and  O_6
REMARK    3  A    between atoms: O_6  and  C_7
REMARK    4  A    between atoms: C_10  and  C_11
REMARK    5  A    between atoms: C_12  and  C_13
REMARK                            x       y       z     vdW  Elec       q    Type
REMARK                         _______ _______ _______ _____ _____    ______ ____
ROOT
ATOM      7  C   UNL     1      -0.934  -0.595   0.142  0.00  0.00    +0.000 A 
ATOM      8  C   UNL     1       0.025  -0.848   1.108  0.00  0.00    +0.000 A 
ATOM      9  C   UNL     1       1.191  -0.093   1.169  0.00  0.00    +0.000 A 
ATOM     10  C   UNL     1       1.444   0.837   0.170  0.00  0.00    +0.000 A 
ATOM     21  C   UNL     1       0.338   1.320  -0.526  0.00  0.00    +0.000 A 
ATOM     22  C   UNL     1      -0.680   0.406  -0.781  0.00  0.00    +0.000 A 
ENDROOT
BRANCH  10  11
ATOM     11  C   UNL     1       2.434   1.916   0.352  0.00  0.00    +0.000 C 
ATOM     12  C   UNL     1       3.254   1.904  -0.711  0.00  0.00    +0.000 C 
BRANCH  12  13
ATOM     13  C   UNL     1       4.254   0.856  -0.505  0.00  0.00    +0.000 A 
ATOM     14  C   UNL     1       4.186  -0.426  -0.951  0.00  0.00    +0.000 A 
ATOM     15  C   UNL     1       5.255  -1.247  -0.628  0.00  0.00    +0.000 A 
ATOM     16  O   UNL     1       5.175  -2.632  -0.634  0.00  0.00    +0.000 OA
ATOM     17  C   UNL     1       6.481  -0.746  -0.199  0.00  0.00    +0.000 A 
ATOM     18  C   UNL     1       6.600   0.583   0.099  0.00  0.00    +0.000 A 
ATOM     19  O   UNL     1       7.845   1.201   0.186  0.00  0.00    +0.000 OA
ATOM     20  C   UNL     1       5.428   1.325   0.079  0.00  0.00    +0.000 A 
ENDBRANCH  12  13
ENDBRANCH  10  11
BRANCH   7   6
ATOM      6  O   UNL     1      -2.181  -1.063   0.436  0.00  0.00    +0.000 OA
BRANCH   6   5
ATOM      3  C   UNL     1      -3.560   0.349   1.056  0.00  0.00    +0.000 C 
ATOM      4  O   UNL     1      -3.800   0.325  -0.447  0.00  0.00    +0.000 OA
ATOM      5  C   UNL     1      -3.048  -0.955  -0.875  0.00  0.00    +0.000 C 
ATOM     23  C   UNL     1      -4.302  -2.069  -0.328  0.00  0.00    +0.000 C 
ATOM     24  O   UNL     1      -3.876  -2.161   1.108  0.00  0.00    +0.000 OA
ATOM     25  C   UNL     1      -5.474  -0.811  -0.161  0.00  0.00    +0.000 C 
ATOM     26  O   UNL     1      -6.505  -1.800   0.320  0.00  0.00    +0.000 OA
ATOM     27  C   UNL     1      -5.085  -0.403   1.470  0.00  0.00    +0.000 C 
ATOM     28  O   UNL     1      -5.939   0.827   1.338  0.00  0.00    +0.000 OA
BRANCH   3   2
ATOM      1  O   UNL     1      -4.437   2.077   0.552  0.00  0.00    +0.000 OA
ATOM      2  C   UNL     1      -4.090   1.922   1.137  0.00  0.00    +0.000 C 
ENDBRANCH   3   2
ENDBRANCH   6   5
ENDBRANCH   7   6
TORSDOF 5
