REMARK  Name = 
REMARK  8 active torsions:
REMARK  status: ('A' for Active; 'I' for Inactive)
REMARK    1  A    between atoms: C_2  and  O_3
REMARK    2  A    between atoms: C_2  and  C_31
REMARK    3  A    between atoms: O_3  and  C_4
REMARK    4  A    between atoms: C_5  and  O_6
REMARK    5  A    between atoms: O_6  and  C_7
REMARK    6  A    between atoms: C_10  and  C_11
REMARK    7  A    between atoms: C_12  and  C_13
REMARK    8  A    between atoms: C_24  and  C_25
REMARK                            x       y       z     vdW  Elec       q    Type
REMARK                         _______ _______ _______ _____ _____    ______ ____
ROOT
ATOM      4  C   UNL     1      -1.813  -1.056   0.471  0.00  0.00    +0.000 C 
ATOM      5  C   UNL     1      -0.579  -1.855  -0.542  0.00  0.00    +0.000 C 
ATOM     23  O   UNL     1      -1.004  -3.367  -0.491  0.00  0.00    +0.000 OA
ATOM     24  C   UNL     1      -2.457  -3.221  -0.996  0.00  0.00    +0.000 C 
ATOM     27  C   UNL     1      -3.175  -3.390   0.617  0.00  0.00    +0.000 C 
ATOM     28  O   UNL     1      -4.281  -2.399   0.511  0.00  0.00    +0.000 OA
ATOM     29  C   UNL     1      -2.072  -2.403   1.497  0.00  0.00    +0.000 C 
ATOM     30  O   UNL     1      -3.067  -1.622   2.318  0.00  0.00    +0.000 OA
ENDROOT
BRANCH  24  25
ATOM     25  C   UNL     1      -1.930  -1.863  -0.779  0.00  0.00    +0.000 C 
ATOM     26  O   UNL     1      -1.387  -2.581   0.423  0.00  0.00    +0.000 OA
ENDBRANCH  24  25
BRANCH   4   3
ATOM      3  O   UNL     1      -3.029  -1.083  -0.447  0.00  0.00    +0.000 OA
BRANCH   3   2
ATOM      1  O   UNL     1      -3.396   0.012  -0.888  0.00  0.00    +0.000 OA
ATOM      2  C   UNL     1      -3.505  -0.041  -1.050  0.00  0.00    +0.000 C 
BRANCH   2  31
ATOM     31  C   UNL     1      -4.573   0.718  -1.224  0.00  0.00    +0.000 A 
ATOM     32  C   UNL     1      -4.137   1.939  -1.626  0.00  0.00    +0.000 A 
ATOM     33  C   UNL     1      -4.814   3.053  -1.143  0.00  0.00    +0.000 A 
ATOM     34  O   UNL     1      -4.352   4.285  -1.503  0.00  0.00    +0.000 OA
ATOM     35  C   UNL     1      -5.847   2.910  -0.221  0.00  0.00    +0.000 A 
ATOM     36  O   UNL     1      -6.635   3.974   0.119  0.00  0.00    +0.000 OA
ATOM     37  C   UNL     1      -6.203   1.635   0.199  0.00  0.00    +0.000 A 
ATOM     38  O   UNL     1      -6.951   1.464   1.330  0.00  0.00    +0.000 OA
ATOM     39  C   UNL     1      -5.793   0.594  -0.639  0.00  0.00    +0.000 A 
ENDBRANCH   2  31
ENDBRANCH   3   2
ENDBRANCH   4   3
BRANCH   5   6
ATOM      6  O   UNL     1       0.371  -1.943   0.677  0.00  0.00    +0.000 OA
BRANCH   6   7
ATOM      7  C   UNL     1       1.677  -1.873   0.532  0.00  0.00    +0.000 A 
ATOM      8  C   UNL     1       2.398  -2.951   1.038  0.00  0.00    +0.000 A 
ATOM      9  C   UNL     1       3.781  -2.821   1.115  0.00  0.00    +0.000 A 
ATOM     10  C   UNL     1       4.393  -1.624   0.742  0.00  0.00    +0.000 A 
ATOM     21  C   UNL     1       3.573  -0.553   1.066  0.00  0.00    +0.000 A 
ATOM     22  C   UNL     1       2.192  -0.654   0.961  0.00  0.00    +0.000 A 
BRANCH  10  11
ATOM     11  C   UNL     1       5.455  -1.589  -0.260  0.00  0.00    +0.000 C 
ATOM     12  C   UNL     1       6.369  -0.675  -0.231  0.00  0.00    +0.000 C 
BRANCH  12  13
ATOM     13  C   UNL     1       6.092   0.655   0.338  0.00  0.00    +0.000 A 
ATOM     14  C   UNL     1       5.389   1.489  -0.533  0.00  0.00    +0.000 A 
ATOM     15  C   UNL     1       5.276   2.829  -0.220  0.00  0.00    +0.000 A 
ATOM     16  O   UNL     1       4.071   3.518  -0.348  0.00  0.00    +0.000 OA
ATOM     17  C   UNL     1       6.456   3.437   0.194  0.00  0.00    +0.000 A 
ATOM     18  C   UNL     1       7.488   2.633   0.674  0.00  0.00    +0.000 A 
ATOM     19  O   UNL     1       8.792   3.143   0.763  0.00  0.00    +0.000 OA
ATOM     20  C   UNL     1       7.226   1.279   0.856  0.00  0.00    +0.000 A 
ENDBRANCH  12  13
ENDBRANCH  10  11
ENDBRANCH   6   7
ENDBRANCH   5   6
TORSDOF 8
