REMARK  Name = 
REMARK  3 active torsions:
REMARK  status: ('A' for Active; 'I' for Inactive)
REMARK    1  A    between atoms: C_2  and  O_4
REMARK    2  A    between atoms: O_4  and  C_5
REMARK    3  A    between atoms: C_26  and  C_27
REMARK                            x       y       z     vdW  Elec       q    Type
REMARK                         _______ _______ _______ _____ _____    ______ ____
ROOT
ATOM      5  C   UNL     1       4.448   0.460   0.411  0.00  0.00    +0.000 C 
ATOM      6  C   UNL     1       3.725  -0.795   1.202  0.00  0.00    +0.000 C 
ATOM      7  C   UNL     1       2.410  -0.036   1.401  0.00  0.00    +0.000 C 
ATOM      8  C   UNL     1       2.011   0.370  -0.020  0.00  0.00    +0.000 C 
ATOM      9  C   UNL     1       2.190   1.694  -0.441  0.00  0.00    +0.000 C 
ATOM     10  C   UNL     1       2.649  -0.764  -0.991  0.00  0.00    +0.000 C 
ATOM     11  C   UNL     1       2.109  -0.045  -2.359  0.00  0.00    +0.000 C 
ATOM     12  C   UNL     1       0.705  -0.643  -2.362  0.00  0.00    +0.000 C 
ATOM     13  C   UNL     1      -0.055   0.183  -1.397  0.00  0.00    +0.000 C 
ATOM     14  C   UNL     1      -0.112   1.632  -1.669  0.00  0.00    +0.000 C 
ATOM     15  C   UNL     1       0.469  -0.133   0.108  0.00  0.00    +0.000 C 
ATOM     16  C   UNL     1      -0.067   1.284   0.732  0.00  0.00    +0.000 C 
ATOM     17  C   UNL     1      -1.567   1.154   0.723  0.00  0.00    +0.000 C 
ATOM     18  C   UNL     1      -2.080   0.343  -0.101  0.00  0.00    +0.000 C 
ATOM     19  C   UNL     1      -3.636   0.304  -0.478  0.00  0.00    +0.000 C 
ATOM     20  C   UNL     1      -4.178   1.372   0.722  0.00  0.00    +0.000 C 
ATOM     21  C   UNL     1      -4.191   0.461   2.030  0.00  0.00    +0.000 C 
ATOM     22  C   UNL     1      -5.781   1.147   0.210  0.00  0.00    +0.000 C 
ATOM     23  C   UNL     1      -6.355   1.957   1.493  0.00  0.00    +0.000 C 
ATOM     24  C   UNL     1      -6.066  -0.298   0.881  0.00  0.00    +0.000 C 
ATOM     25  C   UNL     1      -5.330  -1.338   0.124  0.00  0.00    +0.000 C 
ATOM     26  C   UNL     1      -3.864  -1.142   0.176  0.00  0.00    +0.000 C 
ATOM     30  C   UNL     1      -3.277  -1.898  -1.035  0.00  0.00    +0.000 C 
ATOM     31  C   UNL     1      -1.784  -1.694  -1.196  0.00  0.00    +0.000 C 
ATOM     32  C   UNL     1      -1.462  -0.265  -1.327  0.00  0.00    +0.000 C 
ATOM     33  C   UNL     1      -2.094   0.239  -2.619  0.00  0.00    +0.000 C 
ATOM     34  C   UNL     1       4.140  -0.139  -1.075  0.00  0.00    +0.000 C 
ATOM     35  C   UNL     1       4.259   0.959  -2.018  0.00  0.00    +0.000 C 
ATOM     36  C   UNL     1       4.932  -1.362  -1.319  0.00  0.00    +0.000 C 
ENDROOT
BRANCH  26  27
ATOM     27  C   UNL     1      -3.105  -1.634   1.238  0.00  0.00    +0.000 C 
ATOM     28  O   UNL     1      -1.978  -2.230   1.241  0.00  0.00    +0.000 OA
ATOM     29  O   UNL     1      -3.884  -2.468   2.086  0.00  0.00    +0.000 OA
ENDBRANCH  26  27
BRANCH   5   4
ATOM      4  O   UNL     1       5.840  -0.193   0.529  0.00  0.00    +0.000 OA
BRANCH   4   2
ATOM      1  C   UNL     1       7.877  -0.298   1.897  0.00  0.00    +0.000 C 
ATOM      2  C   UNL     1       6.597   0.385   1.552  0.00  0.00    +0.000 C 
ATOM      3  O   UNL     1       6.506   1.640   1.650  0.00  0.00    +0.000 OA
ENDBRANCH   4   2
ENDBRANCH   5   4
TORSDOF 3
