REMARK  Name = 
REMARK  3 active torsions:
REMARK  status: ('A' for Active; 'I' for Inactive)
REMARK    1  A    between atoms: C_2  and  O_4
REMARK    2  A    between atoms: O_4  and  C_5
REMARK    3  A    between atoms: C_26  and  C_27
REMARK                            x       y       z     vdW  Elec       q    Type
REMARK                         _______ _______ _______ _____ _____    ______ ____
ROOT
ATOM      5  C   UNL     1       5.089  -1.145  -0.173  0.00  0.00    +0.000 C 
ATOM      6  C   UNL     1       3.999  -1.717  -1.260  0.00  0.00    +0.000 C 
ATOM      7  C   UNL     1       2.681  -2.057  -0.802  0.00  0.00    +0.000 C 
ATOM      8  C   UNL     1       1.966  -1.034   0.094  0.00  0.00    +0.000 C 
ATOM      9  C   UNL     1       1.907  -1.597   1.354  0.00  0.00    +0.000 C 
ATOM     10  C   UNL     1       2.924   0.203  -0.298  0.00  0.00    +0.000 C 
ATOM     11  C   UNL     1       2.293   1.297   0.747  0.00  0.00    +0.000 C 
ATOM     12  C   UNL     1       1.136   1.749  -0.158  0.00  0.00    +0.000 C 
ATOM     13  C   UNL     1       0.155   0.682   0.212  0.00  0.00    +0.000 C 
ATOM     14  C   UNL     1       0.239   0.464   1.680  0.00  0.00    +0.000 C 
ATOM     15  C   UNL     1       0.542  -0.677  -0.598  0.00  0.00    +0.000 C 
ATOM     16  C   UNL     1      -0.322  -1.613   0.429  0.00  0.00    +0.000 C 
ATOM     17  C   UNL     1      -1.607  -1.024   0.708  0.00  0.00    +0.000 C 
ATOM     18  C   UNL     1      -2.061   0.157   0.681  0.00  0.00    +0.000 C 
ATOM     19  C   UNL     1      -3.586   0.602   0.431  0.00  0.00    +0.000 C 
ATOM     20  C   UNL     1      -4.101  -0.329   1.744  0.00  0.00    +0.000 C 
ATOM     21  C   UNL     1      -3.989  -1.827   1.169  0.00  0.00    +0.000 C 
ATOM     22  C   UNL     1      -5.777  -0.321   1.530  0.00  0.00    +0.000 C 
ATOM     23  C   UNL     1      -5.939   1.274   1.824  0.00  0.00    +0.000 C 
ATOM     24  C   UNL     1      -5.894  -0.122  -0.066  0.00  0.00    +0.000 C 
ATOM     25  C   UNL     1      -5.049  -1.146  -0.751  0.00  0.00    +0.000 C 
ATOM     26  C   UNL     1      -3.851  -0.309  -0.866  0.00  0.00    +0.000 C 
ATOM     30  C   UNL     1      -2.680  -0.700  -1.566  0.00  0.00    +0.000 C 
ATOM     31  C   UNL     1      -1.553   0.272  -1.575  0.00  0.00    +0.000 C 
ATOM     32  C   UNL     1      -1.229   0.966  -0.292  0.00  0.00    +0.000 C 
ATOM     33  C   UNL     1      -1.583   2.400  -0.386  0.00  0.00    +0.000 C 
ATOM     34  C   UNL     1       4.146  -0.133   0.692  0.00  0.00    +0.000 C 
ATOM     35  C   UNL     1       4.848   1.215   0.829  0.00  0.00    +0.000 C 
ATOM     36  C   UNL     1       3.964  -0.505   2.019  0.00  0.00    +0.000 C 
ENDROOT
BRANCH  26  27
ATOM     27  C   UNL     1      -4.375   0.767  -1.808  0.00  0.00    +0.000 C 
ATOM     28  O   UNL     1      -4.706   1.924  -1.582  0.00  0.00    +0.000 OA
ATOM     29  O   UNL     1      -4.668   0.256  -3.080  0.00  0.00    +0.000 OA
ENDBRANCH  26  27
BRANCH   5   4
ATOM      4  O   UNL     1       5.520  -0.028  -1.147  0.00  0.00    +0.000 OA
BRANCH   4   2
ATOM      1  C   UNL     1       7.171   1.769  -1.250  0.00  0.00    +0.000 C 
ATOM      2  C   UNL     1       6.787   0.512  -0.917  0.00  0.00    +0.000 C 
ATOM      3  O   UNL     1       7.601  -0.225  -0.282  0.00  0.00    +0.000 OA
ENDBRANCH   4   2
ENDBRANCH   5   4
TORSDOF 3
