REMARK  Name = 
REMARK  0 active torsions:
REMARK  status: ('A' for Active; 'I' for Inactive)
REMARK                            x       y       z     vdW  Elec       q    Type
REMARK                         _______ _______ _______ _____ _____    ______ ____
ROOT
ATOM      1  C   UNL     1      -5.121   0.128   2.338  0.00  0.00    +0.000 C 
ATOM      2  C   UNL     1      -4.769   1.431   1.426  0.00  0.00    +0.000 C 
ATOM      3  C   UNL     1      -5.403   0.837   0.070  0.00  0.00    +0.000 C 
ATOM      4  C   UNL     1      -5.050  -0.535  -0.183  0.00  0.00    +0.000 C 
ATOM      5  C   UNL     1      -3.647  -0.714  -0.449  0.00  0.00    +0.000 C 
ATOM      6  C   UNL     1      -3.020  -1.613   0.477  0.00  0.00    +0.000 C 
ATOM      7  C   UNL     1      -1.546  -1.873   0.370  0.00  0.00    +0.000 C 
ATOM      8  C   UNL     1      -0.941  -0.493   0.363  0.00  0.00    +0.000 C 
ATOM      9  C   UNL     1      -0.836  -0.103   1.795  0.00  0.00    +0.000 C 
ATOM     10  C   UNL     1      -1.581   0.381  -0.571  0.00  0.00    +0.000 C 
ATOM     11  C   UNL     1      -0.868   1.651  -0.612  0.00  0.00    +0.000 C 
ATOM     12  C   UNL     1       0.611   1.750  -0.484  0.00  0.00    +0.000 C 
ATOM     13  C   UNL     1       1.217   0.637   0.552  0.00  0.00    +0.000 C 
ATOM     14  C   UNL     1       2.696   0.613  -0.142  0.00  0.00    +0.000 C 
ATOM     15  C   UNL     1       2.783   1.035  -1.439  0.00  0.00    +0.000 C 
ATOM     16  C   UNL     1       3.442   1.400   0.948  0.00  0.00    +0.000 C 
ATOM     17  C   UNL     1       4.873   1.433   0.413  0.00  0.00    +0.000 C 
ATOM     18  C   UNL     1       5.473  -0.075   0.733  0.00  0.00    +0.000 C 
ATOM     19  O   UNL     1       6.735   0.172  -0.069  0.00  0.00    +0.000 OA
ATOM     20  C   UNL     1       4.673  -0.775  -0.526  0.00  0.00    +0.000 C 
ATOM     21  C   UNL     1       5.265  -2.185  -0.515  0.00  0.00    +0.000 C 
ATOM     22  C   UNL     1       4.878  -0.279  -1.753  0.00  0.00    +0.000 C 
ATOM     23  C   UNL     1       3.277  -0.845   0.282  0.00  0.00    +0.000 C 
ATOM     24  C   UNL     1       2.474  -1.704  -0.865  0.00  0.00    +0.000 C 
ATOM     25  C   UNL     1       1.198  -1.842   0.003  0.00  0.00    +0.000 C 
ATOM     26  C   UNL     1       0.477  -0.588  -0.225  0.00  0.00    +0.000 C 
ATOM     27  C   UNL     1       0.559  -0.396  -1.706  0.00  0.00    +0.000 C 
ATOM     28  O   UNL     1      -1.866  -0.295  -1.788  0.00  0.00    +0.000 OA
ATOM     29  C   UNL     1      -3.173  -0.807  -1.835  0.00  0.00    +0.000 C 
ATOM     30  O   UNL     1      -3.797  -0.659  -2.919  0.00  0.00    +0.000 OA
ATOM     31  C   UNL     1      -3.110   0.818  -0.405  0.00  0.00    +0.000 C 
ATOM     32  C   UNL     1      -3.160   0.970   1.263  0.00  0.00    +0.000 C 
ATOM     33  C   UNL     1      -2.743   2.526   1.159  0.00  0.00    +0.000 C 
ENDROOT
TORSDOF 0
