REMARK  Name = 
REMARK  3 active torsions:
REMARK  status: ('A' for Active; 'I' for Inactive)
REMARK    1  A    between atoms: C_2  and  O_4
REMARK    2  A    between atoms: O_4  and  C_5
REMARK    3  A    between atoms: C_26  and  C_27
REMARK                            x       y       z     vdW  Elec       q    Type
REMARK                         _______ _______ _______ _____ _____    ______ ____
ROOT
ATOM      5  C   UNL     1       4.724  -0.152   0.760  0.00  0.00    +0.000 C 
ATOM      6  C   UNL     1       3.634   0.881   1.424  0.00  0.00    +0.000 C 
ATOM      7  C   UNL     1       2.267   0.509   1.126  0.00  0.00    +0.000 C 
ATOM      8  C   UNL     1       2.019  -0.808   0.981  0.00  0.00    +0.000 C 
ATOM      9  C   UNL     1       2.543  -1.442   2.298  0.00  0.00    +0.000 C 
ATOM     10  C   UNL     1       2.929  -1.716   0.011  0.00  0.00    +0.000 C 
ATOM     11  C   UNL     1       1.954  -1.774  -1.297  0.00  0.00    +0.000 C 
ATOM     12  C   UNL     1       1.035  -0.663  -1.318  0.00  0.00    +0.000 C 
ATOM     13  C   UNL     1      -0.033  -0.890  -0.380  0.00  0.00    +0.000 C 
ATOM     14  C   UNL     1      -0.701  -2.223  -0.741  0.00  0.00    +0.000 C 
ATOM     15  C   UNL     1       0.535  -1.416   1.049  0.00  0.00    +0.000 C 
ATOM     16  C   UNL     1      -0.048  -0.123   1.875  0.00  0.00    +0.000 C 
ATOM     17  C   UNL     1      -1.527  -0.429   1.781  0.00  0.00    +0.000 C 
ATOM     18  C   UNL     1      -2.170  -0.234   0.605  0.00  0.00    +0.000 C 
ATOM     19  C   UNL     1      -3.319   0.888   0.700  0.00  0.00    +0.000 C 
ATOM     20  C   UNL     1      -4.482  -0.238   1.191  0.00  0.00    +0.000 C 
ATOM     21  C   UNL     1      -4.777   0.652   2.500  0.00  0.00    +0.000 C 
ATOM     22  C   UNL     1      -5.782   0.309   0.264  0.00  0.00    +0.000 C 
ATOM     23  C   UNL     1      -6.888   0.260   1.451  0.00  0.00    +0.000 C 
ATOM     24  C   UNL     1      -5.486   1.897   0.426  0.00  0.00    +0.000 C 
ATOM     25  C   UNL     1      -4.748   1.986  -0.918  0.00  0.00    +0.000 C 
ATOM     26  C   UNL     1      -3.676   0.935  -0.873  0.00  0.00    +0.000 C 
ATOM     30  C   UNL     1      -2.458   1.565  -1.539  0.00  0.00    +0.000 C 
ATOM     31  C   UNL     1      -1.514   0.373  -1.724  0.00  0.00    +0.000 C 
ATOM     32  C   UNL     1      -1.033   0.122  -0.321  0.00  0.00    +0.000 C 
ATOM     33  C   UNL     1      -0.641   1.507   0.178  0.00  0.00    +0.000 C 
ATOM     34  C   UNL     1       3.828  -0.485  -0.565  0.00  0.00    +0.000 C 
ATOM     35  C   UNL     1       3.282   0.590  -1.217  0.00  0.00    +0.000 C 
ATOM     36  C   UNL     1       4.734  -1.254  -1.519  0.00  0.00    +0.000 C 
ENDROOT
BRANCH  26  27
ATOM     27  C   UNL     1      -3.911  -0.333  -1.445  0.00  0.00    +0.000 C 
ATOM     28  O   UNL     1      -3.865  -0.364  -2.715  0.00  0.00    +0.000 OA
ATOM     29  O   UNL     1      -3.693  -1.599  -0.888  0.00  0.00    +0.000 OA
ENDBRANCH  26  27
BRANCH   5   4
ATOM      4  O   UNL     1       5.450   1.037   0.091  0.00  0.00    +0.000 OA
BRANCH   4   2
ATOM      1  C   UNL     1       7.686   1.823   1.024  0.00  0.00    +0.000 C 
ATOM      2  C   UNL     1       6.841   0.922   0.186  0.00  0.00    +0.000 C 
ATOM      3  O   UNL     1       7.290  -0.112  -0.364  0.00  0.00    +0.000 OA
ENDBRANCH   4   2
ENDBRANCH   5   4
TORSDOF 3
