REMARK  Name = 
REMARK  3 active torsions:
REMARK  status: ('A' for Active; 'I' for Inactive)
REMARK    1  A    between atoms: C_2  and  O_4
REMARK    2  A    between atoms: O_4  and  C_5
REMARK    3  A    between atoms: C_26  and  C_27
REMARK                            x       y       z     vdW  Elec       q    Type
REMARK                         _______ _______ _______ _____ _____    ______ ____
ROOT
ATOM      5  C   UNL     1       4.378  -0.468   0.055  0.00  0.00    +0.000 C 
ATOM      6  C   UNL     1       4.067  -1.813  -0.848  0.00  0.00    +0.000 C 
ATOM      7  C   UNL     1       2.591  -1.789  -1.105  0.00  0.00    +0.000 C 
ATOM      8  C   UNL     1       1.973  -0.611  -0.437  0.00  0.00    +0.000 C 
ATOM      9  C   UNL     1       2.107  -0.455   0.979  0.00  0.00    +0.000 C 
ATOM     10  C   UNL     1       2.450   0.654  -1.333  0.00  0.00    +0.000 C 
ATOM     11  C   UNL     1       2.231   1.714  -0.100  0.00  0.00    +0.000 C 
ATOM     12  C   UNL     1       0.746   1.593   0.060  0.00  0.00    +0.000 C 
ATOM     13  C   UNL     1       0.014   0.806  -0.906  0.00  0.00    +0.000 C 
ATOM     14  C   UNL     1       0.148   1.249  -2.365  0.00  0.00    +0.000 C 
ATOM     15  C   UNL     1       0.409  -0.768  -0.897  0.00  0.00    +0.000 C 
ATOM     16  C   UNL     1      -0.071  -1.139   0.615  0.00  0.00    +0.000 C 
ATOM     17  C   UNL     1      -1.022  -0.224   1.152  0.00  0.00    +0.000 C 
ATOM     18  C   UNL     1      -1.996   0.133   0.369  0.00  0.00    +0.000 C 
ATOM     19  C   UNL     1      -3.272   0.885   0.963  0.00  0.00    +0.000 C 
ATOM     20  C   UNL     1      -3.562  -0.309   2.123  0.00  0.00    +0.000 C 
ATOM     21  C   UNL     1      -3.656   0.834   3.256  0.00  0.00    +0.000 C 
ATOM     22  C   UNL     1      -5.218  -0.503   1.880  0.00  0.00    +0.000 C 
ATOM     23  C   UNL     1      -5.611  -0.528   3.454  0.00  0.00    +0.000 C 
ATOM     24  C   UNL     1      -5.575   1.063   1.652  0.00  0.00    +0.000 C 
ATOM     25  C   UNL     1      -5.546   0.901   0.123  0.00  0.00    +0.000 C 
ATOM     26  C   UNL     1      -4.219   0.345  -0.233  0.00  0.00    +0.000 C 
ATOM     30  C   UNL     1      -3.706   1.292  -1.336  0.00  0.00    +0.000 C 
ATOM     31  C   UNL     1      -2.352   0.815  -1.868  0.00  0.00    +0.000 C 
ATOM     32  C   UNL     1      -1.433   0.998  -0.714  0.00  0.00    +0.000 C 
ATOM     33  C   UNL     1      -1.549   2.483  -0.370  0.00  0.00    +0.000 C 
ATOM     34  C   UNL     1       4.051   0.549  -1.164  0.00  0.00    +0.000 C 
ATOM     35  C   UNL     1       4.582   1.894  -0.804  0.00  0.00    +0.000 C 
ATOM     36  C   UNL     1       4.622   0.002  -2.424  0.00  0.00    +0.000 C 
ENDROOT
BRANCH  26  27
ATOM     27  C   UNL     1      -4.012  -0.961  -0.653  0.00  0.00    +0.000 C 
ATOM     28  O   UNL     1      -4.045  -1.174  -1.917  0.00  0.00    +0.000 OA
ATOM     29  O   UNL     1      -4.029  -2.221  -0.084  0.00  0.00    +0.000 OA
ENDBRANCH  26  27
BRANCH   5   4
ATOM      4  O   UNL     1       5.875  -0.494  -0.306  0.00  0.00    +0.000 OA
BRANCH   4   2
ATOM      1  C   UNL     1       7.883  -0.163   0.821  0.00  0.00    +0.000 C 
ATOM      2  C   UNL     1       6.627   0.034   0.749  0.00  0.00    +0.000 C 
ATOM      3  O   UNL     1       6.121   0.815   1.612  0.00  0.00    +0.000 OA
ENDBRANCH   4   2
ENDBRANCH   5   4
TORSDOF 3
