REMARK  Name = 
REMARK  3 active torsions:
REMARK  status: ('A' for Active; 'I' for Inactive)
REMARK    1  A    between atoms: C_2  and  O_4
REMARK    2  A    between atoms: O_4  and  C_5
REMARK    3  A    between atoms: C_26  and  C_27
REMARK                            x       y       z     vdW  Elec       q    Type
REMARK                         _______ _______ _______ _____ _____    ______ ____
ROOT
ATOM      5  C   UNL     1      -4.884  -0.720   0.995  0.00  0.00    +0.000 C 
ATOM      6  C   UNL     1      -3.908   0.489   1.550  0.00  0.00    +0.000 C 
ATOM      7  C   UNL     1      -2.663  -0.293   1.839  0.00  0.00    +0.000 C 
ATOM      8  C   UNL     1      -2.126  -0.756   0.489  0.00  0.00    +0.000 C 
ATOM      9  C   UNL     1      -2.079  -2.131   0.384  0.00  0.00    +0.000 C 
ATOM     10  C   UNL     1      -2.978   0.092  -0.602  0.00  0.00    +0.000 C 
ATOM     11  C   UNL     1      -2.385  -0.754  -1.877  0.00  0.00    +0.000 C 
ATOM     12  C   UNL     1      -1.140   0.121  -2.037  0.00  0.00    +0.000 C 
ATOM     13  C   UNL     1      -0.220  -0.403  -1.016  0.00  0.00    +0.000 C 
ATOM     14  C   UNL     1      -0.042  -1.847  -1.179  0.00  0.00    +0.000 C 
ATOM     15  C   UNL     1      -0.698   0.022   0.472  0.00  0.00    +0.000 C 
ATOM     16  C   UNL     1       0.130  -1.200   1.178  0.00  0.00    +0.000 C 
ATOM     17  C   UNL     1       1.544  -1.015   0.839  0.00  0.00    +0.000 C 
ATOM     18  C   UNL     1       2.020  -0.761  -0.311  0.00  0.00    +0.000 C 
ATOM     19  C   UNL     1       3.556  -0.496  -0.661  0.00  0.00    +0.000 C 
ATOM     20  C   UNL     1       4.087  -1.514   0.587  0.00  0.00    +0.000 C 
ATOM     21  C   UNL     1       3.930  -0.569   1.871  0.00  0.00    +0.000 C 
ATOM     22  C   UNL     1       5.749  -1.350   0.298  0.00  0.00    +0.000 C 
ATOM     23  C   UNL     1       6.136  -1.767   1.835  0.00  0.00    +0.000 C 
ATOM     24  C   UNL     1       6.020   0.187   0.645  0.00  0.00    +0.000 C 
ATOM     25  C   UNL     1       5.000   1.118   0.689  0.00  0.00    +0.000 C 
ATOM     26  C   UNL     1       3.724   0.971   0.004  0.00  0.00    +0.000 C 
ATOM     30  C   UNL     1       2.473   1.479   0.550  0.00  0.00    +0.000 C 
ATOM     31  C   UNL     1       1.431   1.467  -0.580  0.00  0.00    +0.000 C 
ATOM     32  C   UNL     1       1.185   0.152  -1.171  0.00  0.00    +0.000 C 
ATOM     33  C   UNL     1       1.582  -0.162  -2.557  0.00  0.00    +0.000 C 
ATOM     34  C   UNL     1      -4.351  -0.739  -0.541  0.00  0.00    +0.000 C 
ATOM     35  C   UNL     1      -4.250  -2.111  -1.018  0.00  0.00    +0.000 C 
ATOM     36  C   UNL     1      -5.251  -0.037  -1.469  0.00  0.00    +0.000 C 
ENDROOT
BRANCH  26  27
ATOM     27  C   UNL     1       4.020   1.755  -1.261  0.00  0.00    +0.000 C 
ATOM     28  O   UNL     1       5.214   1.866  -1.711  0.00  0.00    +0.000 OA
ATOM     29  O   UNL     1       3.226   2.828  -1.678  0.00  0.00    +0.000 OA
ENDBRANCH  26  27
BRANCH   5   4
ATOM      4  O   UNL     1      -6.089   0.196   0.736  0.00  0.00    +0.000 OA
BRANCH   4   2
ATOM      1  C   UNL     1      -7.073   2.283  -0.049  0.00  0.00    +0.000 C 
ATOM      2  C   UNL     1      -5.992   1.517   0.576  0.00  0.00    +0.000 C 
ATOM      3  O   UNL     1      -4.898   2.084   0.747  0.00  0.00    +0.000 OA
ENDBRANCH   4   2
ENDBRANCH   5   4
TORSDOF 3
