REMARK  Name = 
REMARK  3 active torsions:
REMARK  status: ('A' for Active; 'I' for Inactive)
REMARK    1  A    between atoms: C_5  and  C_6
REMARK    2  A    between atoms: C_21  and  O_22
REMARK    3  A    between atoms: O_22  and  S_23
REMARK                            x       y       z     vdW  Elec       q    Type
REMARK                         _______ _______ _______ _____ _____    ______ ____
ROOT
ATOM      1  C   UNL     1      -5.341  -3.184  -1.278  0.00  0.00    +0.000 C 
ATOM      2  C   UNL     1      -5.227  -2.300   0.082  0.00  0.00    +0.000 C 
ATOM      3  C   UNL     1      -6.050  -1.067  -0.563  0.00  0.00    +0.000 C 
ATOM      4  C   UNL     1      -5.185  -0.239  -1.429  0.00  0.00    +0.000 C 
ATOM      5  C   UNL     1      -4.355   0.596  -0.499  0.00  0.00    +0.000 C 
ATOM      9  C   UNL     1      -3.370   1.474  -1.090  0.00  0.00    +0.000 C 
ATOM     10  C   UNL     1      -2.367   0.735  -1.916  0.00  0.00    +0.000 C 
ATOM     11  C   UNL     1      -1.606  -0.026  -0.865  0.00  0.00    +0.000 C 
ATOM     12  C   UNL     1      -1.207  -1.325  -1.482  0.00  0.00    +0.000 C 
ATOM     13  C   UNL     1      -2.221  -0.074   0.438  0.00  0.00    +0.000 C 
ATOM     14  C   UNL     1      -1.496  -0.300   1.540  0.00  0.00    +0.000 C 
ATOM     15  C   UNL     1      -0.041   0.058   1.637  0.00  0.00    +0.000 C 
ATOM     16  C   UNL     1       0.459  -0.415   0.152  0.00  0.00    +0.000 C 
ATOM     17  C   UNL     1       1.919   0.320   0.262  0.00  0.00    +0.000 C 
ATOM     18  C   UNL     1       1.796   1.646   0.723  0.00  0.00    +0.000 C 
ATOM     19  C   UNL     1       2.749  -0.688   0.940  0.00  0.00    +0.000 C 
ATOM     20  C   UNL     1       4.215  -0.597   0.827  0.00  0.00    +0.000 C 
ATOM     21  C   UNL     1       4.627  -0.765  -0.765  0.00  0.00    +0.000 C 
ATOM     27  C   UNL     1       3.833   0.601  -1.240  0.00  0.00    +0.000 C 
ATOM     28  C   UNL     1       3.986   1.537  -0.118  0.00  0.00    +0.000 C 
ATOM     29  C   UNL     1       4.134   1.439  -0.450  0.00  0.00    +0.000 C 
ATOM     30  C   UNL     1       2.294   0.090  -1.304  0.00  0.00    +0.000 C 
ATOM     31  C   UNL     1       1.716   1.556  -1.757  0.00  0.00    +0.000 C 
ATOM     32  C   UNL     1       0.281   1.054  -1.925  0.00  0.00    +0.000 C 
ATOM     33  C   UNL     1      -0.321   0.786  -0.618  0.00  0.00    +0.000 C 
ATOM     34  C   UNL     1      -0.703   1.907   0.223  0.00  0.00    +0.000 C 
ATOM     35  C   UNL     1      -3.774  -0.380   0.660  0.00  0.00    +0.000 C 
ATOM     36  C   UNL     1      -3.692  -1.747  -0.334  0.00  0.00    +0.000 C 
ATOM     37  C   UNL     1      -3.024  -2.625   0.834  0.00  0.00    +0.000 C 
ENDROOT
BRANCH   5   6
ATOM      6  C   UNL     1      -5.306   1.499   0.234  0.00  0.00    +0.000 C 
ATOM      7  O   UNL     1      -5.001   2.697   0.525  0.00  0.00    +0.000 OA
ATOM      8  O   UNL     1      -6.546   1.095   0.674  0.00  0.00    +0.000 OA
ENDBRANCH   5   6
BRANCH  21  22
ATOM     22  O   UNL     1       5.931   0.005  -0.591  0.00  0.00    +0.000 OA
BRANCH  22  23
ATOM     23  S   UNL     1       6.876  -0.745   0.507  0.00  0.00    +0.000 S 
ATOM     24  O   UNL     1       7.200  -2.168   0.234  0.00  0.00    +0.000 OA
ATOM     25  O   UNL     1       6.469  -0.540   1.944  0.00  0.00    +0.000 OA
ATOM     26  O   UNL     1       8.348   0.093   0.403  0.00  0.00    +0.000 OA
ENDBRANCH  22  23
ENDBRANCH  21  22
TORSDOF 3
