REMARK  Name = 
REMARK  3 active torsions:
REMARK  status: ('A' for Active; 'I' for Inactive)
REMARK    1  A    between atoms: C_2  and  O_4
REMARK    2  A    between atoms: O_4  and  C_5
REMARK    3  A    between atoms: C_26  and  C_27
REMARK                            x       y       z     vdW  Elec       q    Type
REMARK                         _______ _______ _______ _____ _____    ______ ____
ROOT
ATOM      5  C   UNL     1       4.464   0.458  -1.210  0.00  0.00    +0.000 C 
ATOM      6  C   UNL     1       3.853  -0.715  -2.187  0.00  0.00    +0.000 C 
ATOM      7  C   UNL     1       2.391  -0.752  -1.981  0.00  0.00    +0.000 C 
ATOM      8  C   UNL     1       1.916  -0.977  -0.577  0.00  0.00    +0.000 C 
ATOM      9  C   UNL     1       1.911  -2.311  -0.068  0.00  0.00    +0.000 C 
ATOM     10  C   UNL     1       2.647   0.127   0.356  0.00  0.00    +0.000 C 
ATOM     11  C   UNL     1       2.382  -0.709   1.735  0.00  0.00    +0.000 C 
ATOM     12  C   UNL     1       0.877  -0.705   1.756  0.00  0.00    +0.000 C 
ATOM     13  C   UNL     1       0.195   0.160   0.801  0.00  0.00    +0.000 C 
ATOM     14  C   UNL     1       0.593   1.625   0.833  0.00  0.00    +0.000 C 
ATOM     15  C   UNL     1       0.412  -0.359  -0.725  0.00  0.00    +0.000 C 
ATOM     16  C   UNL     1      -0.348  -1.776  -0.429  0.00  0.00    +0.000 C 
ATOM     17  C   UNL     1      -1.794  -1.509  -0.469  0.00  0.00    +0.000 C 
ATOM     18  C   UNL     1      -2.130  -0.295  -0.067  0.00  0.00    +0.000 C 
ATOM     19  C   UNL     1      -3.602  -0.117   0.548  0.00  0.00    +0.000 C 
ATOM     20  C   UNL     1      -4.380  -1.074  -0.606  0.00  0.00    +0.000 C 
ATOM     21  C   UNL     1      -4.920  -2.034   0.568  0.00  0.00    +0.000 C 
ATOM     22  C   UNL     1      -5.780  -0.142  -0.791  0.00  0.00    +0.000 C 
ATOM     23  C   UNL     1      -6.874  -1.322  -0.570  0.00  0.00    +0.000 C 
ATOM     24  C   UNL     1      -5.887   0.411   0.734  0.00  0.00    +0.000 C 
ATOM     25  C   UNL     1      -5.133   1.710   0.400  0.00  0.00    +0.000 C 
ATOM     26  C   UNL     1      -3.817   1.316  -0.175  0.00  0.00    +0.000 C 
ATOM     30  C   UNL     1      -2.709   2.163   0.374  0.00  0.00    +0.000 C 
ATOM     31  C   UNL     1      -1.836   1.547   1.395  0.00  0.00    +0.000 C 
ATOM     32  C   UNL     1      -1.271   0.199   1.066  0.00  0.00    +0.000 C 
ATOM     33  C   UNL     1      -1.566  -0.679   2.280  0.00  0.00    +0.000 C 
ATOM     34  C   UNL     1       4.159  -0.410   0.150  0.00  0.00    +0.000 C 
ATOM     35  C   UNL     1       4.354  -1.785  -0.034  0.00  0.00    +0.000 C 
ATOM     36  C   UNL     1       4.900   0.261   1.263  0.00  0.00    +0.000 C 
ENDROOT
BRANCH  26  27
ATOM     27  C   UNL     1      -3.675   1.230  -1.601  0.00  0.00    +0.000 C 
ATOM     28  O   UNL     1      -2.491   1.231  -2.068  0.00  0.00    +0.000 OA
ATOM     29  O   UNL     1      -4.489   2.007  -2.443  0.00  0.00    +0.000 OA
ENDBRANCH  26  27
BRANCH   5   4
ATOM      4  O   UNL     1       5.889  -0.110  -1.318  0.00  0.00    +0.000 OA
BRANCH   4   2
ATOM      1  C   UNL     1       8.263   0.510  -1.423  0.00  0.00    +0.000 C 
ATOM      2  C   UNL     1       6.883   0.819  -1.004  0.00  0.00    +0.000 C 
ATOM      3  O   UNL     1       6.613   2.010  -0.666  0.00  0.00    +0.000 OA
ENDBRANCH   4   2
ENDBRANCH   5   4
TORSDOF 3
