REMARK  Name = 
REMARK  3 active torsions:
REMARK  status: ('A' for Active; 'I' for Inactive)
REMARK    1  A    between atoms: C_2  and  O_4
REMARK    2  A    between atoms: O_4  and  C_5
REMARK    3  A    between atoms: C_26  and  C_27
REMARK                            x       y       z     vdW  Elec       q    Type
REMARK                         _______ _______ _______ _____ _____    ______ ____
ROOT
ATOM      5  C   UNL     1       4.089  -0.018   0.665  0.00  0.00    +0.000 C 
ATOM      6  C   UNL     1       3.323  -1.453   0.341  0.00  0.00    +0.000 C 
ATOM      7  C   UNL     1       2.046  -0.985  -0.152  0.00  0.00    +0.000 C 
ATOM      8  C   UNL     1       1.909  -0.145  -1.228  0.00  0.00    +0.000 C 
ATOM      9  C   UNL     1       2.113  -0.655  -2.658  0.00  0.00    +0.000 C 
ATOM     10  C   UNL     1       2.803   1.197  -1.238  0.00  0.00    +0.000 C 
ATOM     11  C   UNL     1       2.469   1.657   0.297  0.00  0.00    +0.000 C 
ATOM     12  C   UNL     1       1.160   1.276   0.719  0.00  0.00    +0.000 C 
ATOM     13  C   UNL     1       0.047   1.029  -0.114  0.00  0.00    +0.000 C 
ATOM     14  C   UNL     1      -0.422   2.397  -0.635  0.00  0.00    +0.000 C 
ATOM     15  C   UNL     1       0.398   0.347  -1.546  0.00  0.00    +0.000 C 
ATOM     16  C   UNL     1      -0.120  -1.163  -1.158  0.00  0.00    +0.000 C 
ATOM     17  C   UNL     1      -1.538  -0.998  -1.360  0.00  0.00    +0.000 C 
ATOM     18  C   UNL     1      -2.116  -0.185  -0.471  0.00  0.00    +0.000 C 
ATOM     19  C   UNL     1      -3.307  -0.815   0.396  0.00  0.00    +0.000 C 
ATOM     20  C   UNL     1      -4.098  -1.407  -0.976  0.00  0.00    +0.000 C 
ATOM     21  C   UNL     1      -3.359  -2.831  -0.807  0.00  0.00    +0.000 C 
ATOM     22  C   UNL     1      -5.603  -1.754  -0.287  0.00  0.00    +0.000 C 
ATOM     23  C   UNL     1      -5.410  -3.342   0.011  0.00  0.00    +0.000 C 
ATOM     24  C   UNL     1      -5.307  -1.359   1.262  0.00  0.00    +0.000 C 
ATOM     25  C   UNL     1      -5.401   0.159   1.091  0.00  0.00    +0.000 C 
ATOM     26  C   UNL     1      -4.107   0.587   0.469  0.00  0.00    +0.000 C 
ATOM     30  C   UNL     1      -3.302   1.305   1.512  0.00  0.00    +0.000 C 
ATOM     31  C   UNL     1      -1.873   1.491   1.256  0.00  0.00    +0.000 C 
ATOM     32  C   UNL     1      -1.150   0.427   0.485  0.00  0.00    +0.000 C 
ATOM     33  C   UNL     1      -0.809  -0.672   1.485  0.00  0.00    +0.000 C 
ATOM     34  C   UNL     1       4.158   0.370  -0.906  0.00  0.00    +0.000 C 
ATOM     35  C   UNL     1       5.214   1.234  -1.310  0.00  0.00    +0.000 C 
ATOM     36  C   UNL     1       4.407  -0.782  -1.719  0.00  0.00    +0.000 C 
ENDROOT
BRANCH  26  27
ATOM     27  C   UNL     1      -4.144   1.329  -0.723  0.00  0.00    +0.000 C 
ATOM     28  O   UNL     1      -4.584   2.512  -0.531  0.00  0.00    +0.000 OA
ATOM     29  O   UNL     1      -3.482   1.275  -1.930  0.00  0.00    +0.000 OA
ENDBRANCH  26  27
BRANCH   5   4
ATOM      4  O   UNL     1       5.467  -0.703   0.588  0.00  0.00    +0.000 OA
BRANCH   4   2
ATOM      1  C   UNL     1       7.482  -0.529   1.333  0.00  0.00    +0.000 C 
ATOM      2  C   UNL     1       6.538  -0.028   1.121  0.00  0.00    +0.000 C 
ATOM      3  O   UNL     1       6.509   1.235   1.282  0.00  0.00    +0.000 OA
ENDBRANCH   4   2
ENDBRANCH   5   4
TORSDOF 3
