
     RDKit          3D

 33 37  0  0  0  0  0  0  0  0999 V2000
   -5.5942   -2.5296   -0.7438 C   0  0  0  0  0  0  0  0  0  0  0  0
   -4.9766   -1.1624   -0.1270 C   0  0  2  0  0  0  0  0  0  0  0  0
   -5.3505   -0.2906   -1.4426 C   0  0  0  0  0  0  0  0  0  0  0  0
   -4.1247    0.4983   -1.8121 C   0  0  0  0  0  0  0  0  0  0  0  0
   -3.4018    0.9380   -0.6295 C   0  0  2  0  0  0  0  0  0  0  0  0
   -4.3755    1.5940    0.3113 C   0  0  0  0  0  0  0  0  0  0  0  0
   -4.3402    1.3273    1.5531 O   0  0  0  0  0  0  0  0  0  0  0  0
   -4.6705    2.9418    0.0601 O   0  0  0  0  0  0  0  0  0  0  0  0
   -2.3817    1.9875   -0.8814 C   0  0  0  0  0  0  0  0  0  0  0  0
   -1.3273    1.8693    0.2187 C   0  0  0  0  0  0  0  0  0  0  0  0
   -0.4723    0.8163   -0.4121 C   0  0  2  0  0  0  0  0  0  0  0  0
   -0.0273    1.3666   -1.7639 C   0  0  0  0  0  0  0  0  0  0  0  0
   -1.3778   -0.3603   -0.6420 C   0  0  0  0  0  0  0  0  0  0  0  0
   -0.8045   -1.5722   -0.6638 C   0  0  0  0  0  0  0  0  0  0  0  0
    0.6275   -1.8394   -0.3275 C   0  0  0  0  0  0  0  0  0  0  0  0
    1.3765   -0.4592   -0.7768 C   0  0  2  0  0  0  0  0  0  0  0  0
    2.8066   -0.8159   -0.0645 C   0  0  1  0  0  0  0  0  0  0  0  0
    2.6569   -1.2037    1.2769 C   0  0  0  0  0  0  0  0  0  0  0  0
    3.4550   -1.6738   -1.0802 C   0  0  0  0  0  0  0  0  0  0  0  0
    4.9326   -1.6512   -1.1521 C   0  0  0  0  0  0  0  0  0  0  0  0
    5.3983   -0.0904   -1.4156 C   0  0  2  0  0  0  0  0  0  0  0  0
    6.8123   -0.3758   -0.9340 O   0  0  0  0  0  0  0  0  0  0  0  0
    4.9334    0.3953    0.0876 C   0  0  0  0  0  0  0  0  0  0  0  0
    5.5802    1.7231    0.3238 C   0  0  0  0  0  0  0  0  0  0  0  0
    5.1653   -0.5838    1.0627 C   0  0  0  0  0  0  0  0  0  0  0  0
    3.3926    0.6801   -0.3292 C   0  0  2  0  0  0  0  0  0  0  0  0
    2.9675    1.2325    1.1524 C   0  0  0  0  0  0  0  0  0  0  0  0
    1.5452    1.5994    0.7259 C   0  0  0  0  0  0  0  0  0  0  0  0
    0.7343    0.4170    0.4342 C   0  0  1  0  0  0  0  0  0  0  0  0
    0.1975   -0.3650    1.5303 C   0  0  0  0  0  0  0  0  0  0  0  0
   -2.7413   -0.2829    0.2057 C   0  0  2  0  0  0  0  0  0  0  0  0
   -3.4412   -1.5180   -0.7107 C   0  0  1  0  0  0  0  0  0  0  0  0
   -3.1745   -2.6122    0.4315 C   0  0  0  0  0  0  0  0  0  0  0  0
  2  1  1  6
  2  3  1  0
  3  4  1  0
  4  5  1  0
  5  6  1  1
  6  7  2  0
  6  8  1  0
  5  9  1  0
  9 10  1  0
 10 11  1  0
 11 12  1  6
 11 13  1  0
 13 14  2  0
 14 15  1  0
 16 15  1  1
 16 17  1  0
 17 18  1  1
 17 19  1  0
 19 20  1  0
 20 21  1  0
 21 22  1  1
 21 23  1  0
 23 24  1  0
 23 25  1  0
 26 23  1  1
 26 27  1  0
 27 28  1  0
 28 29  1  0
 29 30  1  1
 31 13  1  6
 31 32  1  0
 32 33  1  1
 32  2  1  0
 31  5  1  0
 29 11  1  0
 29 16  1  0
 26 17  1  0
M  END
>  <zinc_id>  (1) 
ZINC000003978827

>  <smiles>  (1) 
C[C@@H]1[C@H]2C3=CC[C@@H]4[C@@]5(C)CC[C@H](O)C(C)(C)[C@@H]5CC[C@@]4(C)[C@]3(C)CC[C@@]2(C(=O)O)CC[C@H]1C

$$$$
