REMARK  Name = 
REMARK  1 active torsions:
REMARK  status: ('A' for Active; 'I' for Inactive)
REMARK    1  A    between atoms: C_5  and  C_6
REMARK                            x       y       z     vdW  Elec       q    Type
REMARK                         _______ _______ _______ _____ _____    ______ ____
ROOT
ATOM      1  C   UNL     1      -5.594  -2.530  -0.744  0.00  0.00    +0.000 C 
ATOM      2  C   UNL     1      -4.977  -1.162  -0.127  0.00  0.00    +0.000 C 
ATOM      3  C   UNL     1      -5.351  -0.291  -1.443  0.00  0.00    +0.000 C 
ATOM      4  C   UNL     1      -4.125   0.498  -1.812  0.00  0.00    +0.000 C 
ATOM      5  C   UNL     1      -3.402   0.938  -0.629  0.00  0.00    +0.000 C 
ATOM      9  C   UNL     1      -2.382   1.988  -0.881  0.00  0.00    +0.000 C 
ATOM     10  C   UNL     1      -1.327   1.869   0.219  0.00  0.00    +0.000 C 
ATOM     11  C   UNL     1      -0.472   0.816  -0.412  0.00  0.00    +0.000 C 
ATOM     12  C   UNL     1      -0.027   1.367  -1.764  0.00  0.00    +0.000 C 
ATOM     13  C   UNL     1      -1.378  -0.360  -0.642  0.00  0.00    +0.000 C 
ATOM     14  C   UNL     1      -0.804  -1.572  -0.664  0.00  0.00    +0.000 C 
ATOM     15  C   UNL     1       0.627  -1.839  -0.328  0.00  0.00    +0.000 C 
ATOM     16  C   UNL     1       1.377  -0.459  -0.777  0.00  0.00    +0.000 C 
ATOM     17  C   UNL     1       2.807  -0.816  -0.065  0.00  0.00    +0.000 C 
ATOM     18  C   UNL     1       2.657  -1.204   1.277  0.00  0.00    +0.000 C 
ATOM     19  C   UNL     1       3.455  -1.674  -1.080  0.00  0.00    +0.000 C 
ATOM     20  C   UNL     1       4.933  -1.651  -1.152  0.00  0.00    +0.000 C 
ATOM     21  C   UNL     1       5.398  -0.090  -1.416  0.00  0.00    +0.000 C 
ATOM     22  O   UNL     1       6.812  -0.376  -0.934  0.00  0.00    +0.000 OA
ATOM     23  C   UNL     1       4.933   0.395   0.088  0.00  0.00    +0.000 C 
ATOM     24  C   UNL     1       5.580   1.723   0.324  0.00  0.00    +0.000 C 
ATOM     25  C   UNL     1       5.165  -0.584   1.063  0.00  0.00    +0.000 C 
ATOM     26  C   UNL     1       3.393   0.680  -0.329  0.00  0.00    +0.000 C 
ATOM     27  C   UNL     1       2.967   1.232   1.152  0.00  0.00    +0.000 C 
ATOM     28  C   UNL     1       1.545   1.599   0.726  0.00  0.00    +0.000 C 
ATOM     29  C   UNL     1       0.734   0.417   0.434  0.00  0.00    +0.000 C 
ATOM     30  C   UNL     1       0.198  -0.365   1.530  0.00  0.00    +0.000 C 
ATOM     31  C   UNL     1      -2.741  -0.283   0.206  0.00  0.00    +0.000 C 
ATOM     32  C   UNL     1      -3.441  -1.518  -0.711  0.00  0.00    +0.000 C 
ATOM     33  C   UNL     1      -3.175  -2.612   0.431  0.00  0.00    +0.000 C 
ENDROOT
BRANCH   5   6
ATOM      6  C   UNL     1      -4.375   1.594   0.311  0.00  0.00    +0.000 C 
ATOM      7  O   UNL     1      -4.340   1.327   1.553  0.00  0.00    +0.000 OA
ATOM      8  O   UNL     1      -4.670   2.942   0.060  0.00  0.00    +0.000 OA
ENDBRANCH   5   6
TORSDOF 1
