
     RDKit          3D

 36 40  0  0  0  0  0  0  0  0999 V2000
   -7.0733    2.2827   -0.0489 C   0  0  0  0  0  0  0  0  0  0  0  0
   -5.9919    1.5174    0.5762 C   0  0  0  0  0  0  0  0  0  0  0  0
   -4.8977    2.0841    0.7465 O   0  0  0  0  0  0  0  0  0  0  0  0
   -6.0888    0.1955    0.7356 O   0  0  0  0  0  0  0  0  0  0  0  0
   -4.8837   -0.7201    0.9948 C   0  0  2  0  0  0  0  0  0  0  0  0
   -3.9084    0.4890    1.5498 C   0  0  0  0  0  0  0  0  0  0  0  0
   -2.6631   -0.2931    1.8391 C   0  0  0  0  0  0  0  0  0  0  0  0
   -2.1257   -0.7557    0.4889 C   0  0  1  0  0  0  0  0  0  0  0  0
   -2.0791   -2.1309    0.3840 C   0  0  0  0  0  0  0  0  0  0  0  0
   -2.9778    0.0920   -0.6017 C   0  0  1  0  0  0  0  0  0  0  0  0
   -2.3849   -0.7545   -1.8767 C   0  0  0  0  0  0  0  0  0  0  0  0
   -1.1397    0.1208   -2.0369 C   0  0  0  0  0  0  0  0  0  0  0  0
   -0.2202   -0.4029   -1.0159 C   0  0  2  0  0  0  0  0  0  0  0  0
   -0.0416   -1.8474   -1.1789 C   0  0  0  0  0  0  0  0  0  0  0  0
   -0.6982    0.0218    0.4723 C   0  0  2  0  0  0  0  0  0  0  0  0
    0.1304   -1.2002    1.1777 C   0  0  0  0  0  0  0  0  0  0  0  0
    1.5442   -1.0154    0.8390 C   0  0  0  0  0  0  0  0  0  0  0  0
    2.0198   -0.7613   -0.3113 C   0  0  0  0  0  0  0  0  0  0  0  0
    3.5562   -0.4962   -0.6615 C   0  0  2  0  0  0  0  0  0  0  0  0
    4.0871   -1.5141    0.5873 C   0  0  2  0  0  0  0  0  0  0  0  0
    3.9303   -0.5693    1.8712 C   0  0  0  0  0  0  0  0  0  0  0  0
    5.7486   -1.3501    0.2981 C   0  0  2  0  0  0  0  0  0  0  0  0
    6.1359   -1.7666    1.8345 C   0  0  0  0  0  0  0  0  0  0  0  0
    6.0198    0.1867    0.6450 C   0  0  0  0  0  0  0  0  0  0  0  0
    4.9997    1.1182    0.6885 C   0  0  0  0  0  0  0  0  0  0  0  0
    3.7243    0.9709    0.0037 C   0  0  1  0  0  0  0  0  0  0  0  0
    4.0196    1.7548   -1.2606 C   0  0  0  0  0  0  0  0  0  0  0  0
    5.2138    1.8659   -1.7110 O   0  0  0  0  0  0  0  0  0  0  0  0
    3.2264    2.8282   -1.6778 O   0  0  0  0  0  0  0  0  0  0  0  0
    2.4729    1.4789    0.5496 C   0  0  0  0  0  0  0  0  0  0  0  0
    1.4310    1.4669   -0.5801 C   0  0  0  0  0  0  0  0  0  0  0  0
    1.1854    0.1525   -1.1708 C   0  0  2  0  0  0  0  0  0  0  0  0
    1.5823   -0.1615   -2.5572 C   0  0  0  0  0  0  0  0  0  0  0  0
   -4.3515   -0.7392   -0.5415 C   0  0  0  0  0  0  0  0  0  0  0  0
   -4.2504   -2.1106   -1.0185 C   0  0  0  0  0  0  0  0  0  0  0  0
   -5.2514   -0.0371   -1.4691 C   0  0  0  0  0  0  0  0  0  0  0  0
  1  2  1  0
  2  3  2  0
  2  4  1  0
  5  4  1  6
  5  6  1  0
  6  7  1  0
  7  8  1  0
  8  9  1  6
  8 10  1  0
 10 11  1  6
 11 12  1  0
 12 13  1  0
 13 14  1  1
 13 15  1  0
 15 16  1  1
 16 17  1  0
 17 18  2  0
 19 18  1  1
 19 20  1  0
 20 21  1  1
 20 22  1  0
 22 23  1  1
 22 24  1  0
 24 25  1  0
 25 26  1  0
 26 27  1  6
 27 28  2  0
 27 29  1  0
 26 30  1  0
 30 31  1  0
 31 32  1  0
 32 33  1  6
 10 34  1  0
 34 35  1  0
 34 36  1  0
 34  5  1  0
 15  8  1  0
 32 18  1  0
 32 13  1  0
 26 19  1  0
M  END
>  <zinc_id>  (1) 
ZINC000100779517

>  <smiles>  (1) 
CC(=O)O[C@@H]1CC[C@@]2(C)[C@@H](CC[C@]3(C)[C@@H]2CC=C2[C@@H]4[C@H](C)[C@H](C)CC[C@]4(C(=O)O)CC[C@@]23C)C1(C)C

$$$$
