
     RDKit          3D

 36 40  0  0  0  0  0  0  0  0999 V2000
    7.4818   -0.5293    1.3325 C   0  0  0  0  0  0  0  0  0  0  0  0
    6.5384   -0.0277    1.1210 C   0  0  0  0  0  0  0  0  0  0  0  0
    6.5086    1.2348    1.2822 O   0  0  0  0  0  0  0  0  0  0  0  0
    5.4672   -0.7031    0.5876 O   0  0  0  0  0  0  0  0  0  0  0  0
    4.0891   -0.0180    0.6652 C   0  0  2  0  0  0  0  0  0  0  0  0
    3.3229   -1.4529    0.3407 C   0  0  0  0  0  0  0  0  0  0  0  0
    2.0464   -0.9852   -0.1517 C   0  0  0  0  0  0  0  0  0  0  0  0
    1.9085   -0.1450   -1.2277 C   0  0  2  0  0  0  0  0  0  0  0  0
    2.1131   -0.6546   -2.6578 C   0  0  0  0  0  0  0  0  0  0  0  0
    2.8025    1.1968   -1.2380 C   0  0  1  0  0  0  0  0  0  0  0  0
    2.4689    1.6570    0.2972 C   0  0  0  0  0  0  0  0  0  0  0  0
    1.1601    1.2758    0.7188 C   0  0  0  0  0  0  0  0  0  0  0  0
    0.0468    1.0293   -0.1142 C   0  0  1  0  0  0  0  0  0  0  0  0
   -0.4219    2.3966   -0.6348 C   0  0  0  0  0  0  0  0  0  0  0  0
    0.3981    0.3472   -1.5458 C   0  0  2  0  0  0  0  0  0  0  0  0
   -0.1198   -1.1631   -1.1580 C   0  0  0  0  0  0  0  0  0  0  0  0
   -1.5378   -0.9981   -1.3604 C   0  0  0  0  0  0  0  0  0  0  0  0
   -2.1158   -0.1855   -0.4708 C   0  0  0  0  0  0  0  0  0  0  0  0
   -3.3071   -0.8150    0.3962 C   0  0  2  0  0  0  0  0  0  0  0  0
   -4.0976   -1.4065   -0.9758 C   0  0  1  0  0  0  0  0  0  0  0  0
   -3.3593   -2.8314   -0.8068 C   0  0  0  0  0  0  0  0  0  0  0  0
   -5.6026   -1.7542   -0.2868 C   0  0  1  0  0  0  0  0  0  0  0  0
   -5.4101   -3.3421    0.0108 C   0  0  0  0  0  0  0  0  0  0  0  0
   -5.3071   -1.3592    1.2616 C   0  0  0  0  0  0  0  0  0  0  0  0
   -5.4007    0.1586    1.0907 C   0  0  0  0  0  0  0  0  0  0  0  0
   -4.1069    0.5868    0.4687 C   0  0  2  0  0  0  0  0  0  0  0  0
   -4.1442    1.3286   -0.7226 C   0  0  0  0  0  0  0  0  0  0  0  0
   -4.5841    2.5116   -0.5313 O   0  0  0  0  0  0  0  0  0  0  0  0
   -3.4823    1.2750   -1.9300 O   0  0  0  0  0  0  0  0  0  0  0  0
   -3.3024    1.3046    1.5117 C   0  0  0  0  0  0  0  0  0  0  0  0
   -1.8729    1.4914    1.2562 C   0  0  0  0  0  0  0  0  0  0  0  0
   -1.1499    0.4271    0.4850 C   0  0  2  0  0  0  0  0  0  0  0  0
   -0.8088   -0.6725    1.4850 C   0  0  0  0  0  0  0  0  0  0  0  0
    4.1579    0.3698   -0.9057 C   0  0  0  0  0  0  0  0  0  0  0  0
    5.2139    1.2342   -1.3104 C   0  0  0  0  0  0  0  0  0  0  0  0
    4.4072   -0.7821   -1.7190 C   0  0  0  0  0  0  0  0  0  0  0  0
  1  2  1  0
  2  3  2  0
  2  4  1  0
  5  4  1  6
  5  6  1  0
  6  7  1  0
  7  8  1  0
  8  9  1  6
  8 10  1  0
 10 11  1  1
 11 12  1  0
 12 13  1  0
 13 14  1  6
 13 15  1  0
 15 16  1  1
 16 17  1  0
 17 18  2  0
 19 18  1  6
 19 20  1  0
 20 21  1  1
 20 22  1  0
 22 23  1  1
 22 24  1  0
 24 25  1  0
 25 26  1  0
 26 27  1  6
 27 28  2  0
 27 29  1  0
 26 30  1  0
 30 31  1  0
 31 32  1  0
 32 33  1  1
 10 34  1  0
 34 35  1  0
 34 36  1  0
 34  5  1  0
 15  8  1  0
 32 18  1  0
 32 13  1  0
 26 19  1  0
M  END
>  <zinc_id>  (1) 
ZINC000230084237

>  <smiles>  (1) 
CC(=O)O[C@@H]1CC[C@]2(C)[C@@H](CC[C@@]3(C)[C@@H]2CC=C2[C@@H]4[C@@H](C)[C@@H](C)CC[C@@]4(C(=O)O)CC[C@@]23C)C1(C)C

$$$$
