
     RDKit          3D

 36 40  0  0  0  0  0  0  0  0999 V2000
   -8.0149    1.0907    0.0119 C   0  0  0  0  0  0  0  0  0  0  0  0
   -6.7456    1.1041    0.3310 C   0  0  0  0  0  0  0  0  0  0  0  0
   -6.1581    2.2133    0.4628 O   0  0  0  0  0  0  0  0  0  0  0  0
   -6.0059   -0.0320    0.1469 O   0  0  0  0  0  0  0  0  0  0  0  0
   -4.5959   -0.0668    0.7596 C   0  0  2  0  0  0  0  0  0  0  0  0
   -4.0973    1.2094   -0.1570 C   0  0  0  0  0  0  0  0  0  0  0  0
   -2.7543    1.3355    0.5652 C   0  0  0  0  0  0  0  0  0  0  0  0
   -2.0554   -0.0294    0.5079 C   0  0  1  0  0  0  0  0  0  0  0  0
   -2.1137   -0.8493    1.6153 C   0  0  0  0  0  0  0  0  0  0  0  0
   -2.6725   -0.5622   -0.8878 C   0  0  1  0  0  0  0  0  0  0  0  0
   -1.8624   -1.9842   -0.8911 C   0  0  0  0  0  0  0  0  0  0  0  0
   -0.6256   -1.3893   -1.5673 C   0  0  0  0  0  0  0  0  0  0  0  0
    0.0853   -0.8485   -0.3912 C   0  0  2  0  0  0  0  0  0  0  0  0
    0.0851   -1.8698    0.6824 C   0  0  0  0  0  0  0  0  0  0  0  0
   -0.5882    0.5394    0.0975 C   0  0  2  0  0  0  0  0  0  0  0  0
    0.0089    0.4220    1.6178 C   0  0  0  0  0  0  0  0  0  0  0  0
    1.4719    0.2632    1.5264 C   0  0  0  0  0  0  0  0  0  0  0  0
    2.0958    0.1428    0.4122 C   0  0  0  0  0  0  0  0  0  0  0  0
    3.5926   -0.4082    0.3359 C   0  0  2  0  0  0  0  0  0  0  0  0
    4.1370    0.2862    1.7753 C   0  0  2  0  0  0  0  0  0  0  0  0
    4.8053    1.6697    1.3412 C   0  0  0  0  0  0  0  0  0  0  0  0
    5.6366   -0.5107    1.7088 C   0  0  1  0  0  0  0  0  0  0  0  0
    4.9086   -1.9565    1.8875 C   0  0  0  0  0  0  0  0  0  0  0  0
    5.8309   -0.7174    0.1224 C   0  0  0  0  0  0  0  0  0  0  0  0
    5.5073    0.4357   -0.7082 C   0  0  0  0  0  0  0  0  0  0  0  0
    4.0536    0.6749   -0.7604 C   0  0  2  0  0  0  0  0  0  0  0  0
    3.4805    1.9307   -0.7737 C   0  0  0  0  0  0  0  0  0  0  0  0
    4.1462    2.7398   -1.5020 O   0  0  0  0  0  0  0  0  0  0  0  0
    2.3689    2.5390   -0.2778 O   0  0  0  0  0  0  0  0  0  0  0  0
    3.4057    0.0053   -1.9874 C   0  0  0  0  0  0  0  0  0  0  0  0
    1.8811    0.1693   -1.9285 C   0  0  0  0  0  0  0  0  0  0  0  0
    1.4769   -0.5948   -0.7393 C   0  0  2  0  0  0  0  0  0  0  0  0
    2.0200   -2.0077   -0.9325 C   0  0  0  0  0  0  0  0  0  0  0  0
   -4.0251   -1.1964   -0.2690 C   0  0  0  0  0  0  0  0  0  0  0  0
   -4.8682   -1.3101   -1.4715 C   0  0  0  0  0  0  0  0  0  0  0  0
   -3.8152   -2.4374    0.4561 C   0  0  0  0  0  0  0  0  0  0  0  0
  1  2  1  0
  2  3  2  0
  2  4  1  0
  5  4  1  6
  5  6  1  0
  6  7  1  0
  7  8  1  0
  8  9  1  1
  8 10  1  0
 10 11  1  1
 11 12  1  0
 12 13  1  0
 13 14  1  1
 13 15  1  0
 15 16  1  1
 16 17  1  0
 17 18  2  0
 19 18  1  1
 19 20  1  0
 20 21  1  6
 20 22  1  0
 22 23  1  1
 22 24  1  0
 24 25  1  0
 25 26  1  0
 26 27  1  1
 27 28  2  0
 27 29  1  0
 26 30  1  0
 30 31  1  0
 31 32  1  0
 32 33  1  6
 10 34  1  0
 34 35  1  0
 34 36  1  0
 34  5  1  0
 15  8  1  0
 32 18  1  0
 32 13  1  0
 26 19  1  0
M  END
>  <zinc_id>  (1) 
ZINC000100779524

>  <smiles>  (1) 
CC(=O)O[C@@H]1CC[C@@]2(C)[C@@H](CC[C@]3(C)[C@@H]2CC=C2[C@@H]4[C@H](C)[C@@H](C)CC[C@@]4(C(=O)O)CC[C@@]23C)C1(C)C

$$$$
