REMARK  Name = 
REMARK  2 active torsions:
REMARK  status: ('A' for Active; 'I' for Inactive)
REMARK    1  A    between atoms: C_2  and  O_4
REMARK    2  A    between atoms: O_4  and  C_5
REMARK                            x       y       z     vdW  Elec       q    Type
REMARK                         _______ _______ _______ _____ _____    ______ ____
ROOT
ATOM      5  C   UNL     1       4.477   0.799   0.753  0.00  0.00    +0.000 C 
ATOM      6  C   UNL     1       3.286   1.380  -0.225  0.00  0.00    +0.000 C 
ATOM      7  C   UNL     1       2.894   0.342  -1.198  0.00  0.00    +0.000 C 
ATOM      8  C   UNL     1       1.997  -0.697  -0.619  0.00  0.00    +0.000 C 
ATOM      9  C   UNL     1       1.994  -2.021  -1.088  0.00  0.00    +0.000 C 
ATOM     10  C   UNL     1       2.320  -0.485   0.963  0.00  0.00    +0.000 C 
ATOM     11  C   UNL     1       1.940  -2.022   1.359  0.00  0.00    +0.000 C 
ATOM     12  C   UNL     1       0.444  -1.716   1.468  0.00  0.00    +0.000 C 
ATOM     13  C   UNL     1      -0.209  -1.348   0.211  0.00  0.00    +0.000 C 
ATOM     14  C   UNL     1      -0.554  -2.403  -0.721  0.00  0.00    +0.000 C 
ATOM     15  C   UNL     1       0.506  -0.058  -0.478  0.00  0.00    +0.000 C 
ATOM     16  C   UNL     1       0.033  -0.449  -1.991  0.00  0.00    +0.000 C 
ATOM     17  C   UNL     1      -1.407  -0.039  -1.929  0.00  0.00    +0.000 C 
ATOM     18  C   UNL     1      -2.145  -0.401  -0.691  0.00  0.00    +0.000 C 
ATOM     19  O   UNL     1      -2.897  -1.581  -1.004  0.00  0.00    +0.000 OA
ATOM     20  C   UNL     1      -4.146  -1.562  -0.396  0.00  0.00    +0.000 C 
ATOM     21  O   UNL     1      -5.156  -2.093  -0.951  0.00  0.00    +0.000 OA
ATOM     22  C   UNL     1      -4.208  -0.334   0.375  0.00  0.00    +0.000 C 
ATOM     23  C   UNL     1      -5.510   0.360   0.493  0.00  0.00    +0.000 C 
ATOM     24  C   UNL     1      -5.181   1.649   1.250  0.00  0.00    +0.000 C 
ATOM     25  C   UNL     1      -4.428   2.550   0.132  0.00  0.00    +0.000 C 
ATOM     26  C   UNL     1      -4.001   3.692   1.199  0.00  0.00    +0.000 C 
ATOM     27  C   UNL     1      -2.969   1.738   0.330  0.00  0.00    +0.000 C 
ATOM     28  C   UNL     1      -2.266   2.608  -0.823  0.00  0.00    +0.000 C 
ATOM     29  C   UNL     1      -3.446   0.544  -0.755  0.00  0.00    +0.000 C 
ATOM     30  C   UNL     1      -3.494  -0.325   1.653  0.00  0.00    +0.000 C 
ATOM     31  C   UNL     1      -2.376  -1.364   1.512  0.00  0.00    +0.000 C 
ATOM     32  C   UNL     1      -1.496  -0.576   0.545  0.00  0.00    +0.000 C 
ATOM     33  C   UNL     1      -0.969   0.540   1.385  0.00  0.00    +0.000 C 
ATOM     34  C   UNL     1       3.912  -0.736   0.832  0.00  0.00    +0.000 C 
ATOM     35  C   UNL     1       4.374  -1.608  -0.151  0.00  0.00    +0.000 C 
ATOM     36  C   UNL     1       4.306  -1.228   2.224  0.00  0.00    +0.000 C 
ENDROOT
BRANCH   5   4
ATOM      4  O   UNL     1       5.403   0.546  -0.453  0.00  0.00    +0.000 OA
BRANCH   4   2
ATOM      1  C   UNL     1       7.210   1.727  -1.360  0.00  0.00    +0.000 C 
ATOM      2  C   UNL     1       6.132   1.717  -0.706  0.00  0.00    +0.000 C 
ATOM      3  O   UNL     1       5.632   2.852  -0.427  0.00  0.00    +0.000 OA
ENDBRANCH   4   2
ENDBRANCH   5   4
TORSDOF 2
