
     RDKit          3D

 36 40  0  0  0  0  0  0  0  0999 V2000
    8.2633    0.5100   -1.4228 C   0  0  0  0  0  0  0  0  0  0  0  0
    6.8825    0.8187   -1.0045 C   0  0  0  0  0  0  0  0  0  0  0  0
    6.6128    2.0096   -0.6660 O   0  0  0  0  0  0  0  0  0  0  0  0
    5.8888   -0.1103   -1.3179 O   0  0  0  0  0  0  0  0  0  0  0  0
    4.4636    0.4575   -1.2097 C   0  0  1  0  0  0  0  0  0  0  0  0
    3.8526   -0.7147   -2.1871 C   0  0  0  0  0  0  0  0  0  0  0  0
    2.3907   -0.7523   -1.9808 C   0  0  0  0  0  0  0  0  0  0  0  0
    1.9163   -0.9772   -0.5771 C   0  0  1  0  0  0  0  0  0  0  0  0
    1.9115   -2.3107   -0.0682 C   0  0  0  0  0  0  0  0  0  0  0  0
    2.6468    0.1267    0.3557 C   0  0  1  0  0  0  0  0  0  0  0  0
    2.3819   -0.7089    1.7346 C   0  0  0  0  0  0  0  0  0  0  0  0
    0.8771   -0.7054    1.7561 C   0  0  0  0  0  0  0  0  0  0  0  0
    0.1953    0.1596    0.8012 C   0  0  1  0  0  0  0  0  0  0  0  0
    0.5928    1.6255    0.8327 C   0  0  0  0  0  0  0  0  0  0  0  0
    0.4121   -0.3593   -0.7253 C   0  0  2  0  0  0  0  0  0  0  0  0
   -0.3476   -1.7763   -0.4293 C   0  0  0  0  0  0  0  0  0  0  0  0
   -1.7936   -1.5087   -0.4693 C   0  0  0  0  0  0  0  0  0  0  0  0
   -2.1304   -0.2949   -0.0672 C   0  0  0  0  0  0  0  0  0  0  0  0
   -3.6015   -0.1165    0.5478 C   0  0  2  0  0  0  0  0  0  0  0  0
   -4.3795   -1.0741   -0.6061 C   0  0  1  0  0  0  0  0  0  0  0  0
   -4.9199   -2.0339    0.5678 C   0  0  0  0  0  0  0  0  0  0  0  0
   -5.7799   -0.1418   -0.7908 C   0  0  1  0  0  0  0  0  0  0  0  0
   -6.8740   -1.3224   -0.5700 C   0  0  0  0  0  0  0  0  0  0  0  0
   -5.8869    0.4113    0.7340 C   0  0  0  0  0  0  0  0  0  0  0  0
   -5.1330    1.7095    0.3995 C   0  0  0  0  0  0  0  0  0  0  0  0
   -3.8169    1.3156   -0.1747 C   0  0  2  0  0  0  0  0  0  0  0  0
   -3.6747    1.2297   -1.6006 C   0  0  0  0  0  0  0  0  0  0  0  0
   -2.4912    1.2313   -2.0678 O   0  0  0  0  0  0  0  0  0  0  0  0
   -4.4890    2.0069   -2.4428 O   0  0  0  0  0  0  0  0  0  0  0  0
   -2.7088    2.1629    0.3737 C   0  0  0  0  0  0  0  0  0  0  0  0
   -1.8364    1.5469    1.3952 C   0  0  0  0  0  0  0  0  0  0  0  0
   -1.2712    0.1986    1.0657 C   0  0  2  0  0  0  0  0  0  0  0  0
   -1.5661   -0.6792    2.2796 C   0  0  0  0  0  0  0  0  0  0  0  0
    4.1585   -0.4097    0.1497 C   0  0  0  0  0  0  0  0  0  0  0  0
    4.3535   -1.7850   -0.0344 C   0  0  0  0  0  0  0  0  0  0  0  0
    4.9004    0.2610    1.2626 C   0  0  0  0  0  0  0  0  0  0  0  0
  1  2  1  0
  2  3  2  0
  2  4  1  0
  5  4  1  6
  5  6  1  0
  6  7  1  0
  7  8  1  0
  8  9  1  1
  8 10  1  0
 10 11  1  1
 11 12  1  0
 12 13  1  0
 13 14  1  6
 13 15  1  0
 15 16  1  1
 16 17  1  0
 17 18  2  0
 19 18  1  6
 19 20  1  0
 20 21  1  1
 20 22  1  0
 22 23  1  1
 22 24  1  0
 24 25  1  0
 25 26  1  0
 26 27  1  6
 27 28  2  0
 27 29  1  0
 26 30  1  0
 30 31  1  0
 31 32  1  0
 32 33  1  1
 10 34  1  0
 34 35  1  0
 34 36  1  0
 34  5  1  0
 15  8  1  0
 32 18  1  0
 32 13  1  0
 26 19  1  0
M  END
>  <zinc_id>  (1) 
ZINC000230084233

>  <smiles>  (1) 
CC(=O)O[C@H]1CC[C@@]2(C)[C@@H](CC[C@@]3(C)[C@@H]2CC=C2[C@@H]4[C@@H](C)[C@@H](C)CC[C@@]4(C(=O)O)CC[C@@]23C)C1(C)C

$$$$
