
     RDKit          3D

 37 41  0  0  0  0  0  0  0  0999 V2000
   -5.3413   -3.1839   -1.2778 C   0  0  0  0  0  0  0  0  0  0  0  0
   -5.2271   -2.3002    0.0815 C   0  0  2  0  0  0  0  0  0  0  0  0
   -6.0499   -1.0672   -0.5630 C   0  0  0  0  0  0  0  0  0  0  0  0
   -5.1850   -0.2394   -1.4293 C   0  0  0  0  0  0  0  0  0  0  0  0
   -4.3548    0.5959   -0.4987 C   0  0  2  0  0  0  0  0  0  0  0  0
   -5.3061    1.4988    0.2343 C   0  0  0  0  0  0  0  0  0  0  0  0
   -5.0008    2.6966    0.5252 O   0  0  0  0  0  0  0  0  0  0  0  0
   -6.5463    1.0955    0.6740 O   0  0  0  0  0  0  0  0  0  0  0  0
   -3.3700    1.4736   -1.0901 C   0  0  0  0  0  0  0  0  0  0  0  0
   -2.3672    0.7354   -1.9162 C   0  0  0  0  0  0  0  0  0  0  0  0
   -1.6061   -0.0264   -0.8650 C   0  0  2  0  0  0  0  0  0  0  0  0
   -1.2067   -1.3249   -1.4825 C   0  0  0  0  0  0  0  0  0  0  0  0
   -2.2215   -0.0738    0.4379 C   0  0  0  0  0  0  0  0  0  0  0  0
   -1.4958   -0.3005    1.5397 C   0  0  0  0  0  0  0  0  0  0  0  0
   -0.0405    0.0577    1.6371 C   0  0  0  0  0  0  0  0  0  0  0  0
    0.4593   -0.4148    0.1524 C   0  0  2  0  0  0  0  0  0  0  0  0
    1.9187    0.3202    0.2619 C   0  0  1  0  0  0  0  0  0  0  0  0
    1.7963    1.6461    0.7227 C   0  0  0  0  0  0  0  0  0  0  0  0
    2.7493   -0.6883    0.9402 C   0  0  0  0  0  0  0  0  0  0  0  0
    4.2152   -0.5970    0.8272 C   0  0  0  0  0  0  0  0  0  0  0  0
    4.6268   -0.7655   -0.7647 C   0  0  2  0  0  0  0  0  0  0  0  0
    5.9306    0.0051   -0.5907 O   0  0  0  0  0  0  0  0  0  0  0  0
    6.8758   -0.7447    0.5073 S   0  0  0  0  0  0  0  0  0  0  0  0
    7.1997   -2.1684    0.2342 O   0  0  0  0  0  0  0  0  0  0  0  0
    6.4686   -0.5402    1.9443 O   0  0  0  0  0  0  0  0  0  0  0  0
    8.3475    0.0934    0.4032 O   0  0  0  0  0  0  0  0  0  0  0  0
    3.8333    0.6008   -1.2401 C   0  0  0  0  0  0  0  0  0  0  0  0
    3.9865    1.5373   -0.1181 C   0  0  0  0  0  0  0  0  0  0  0  0
    4.1337    1.4394   -0.4497 C   0  0  0  0  0  0  0  0  0  0  0  0
    2.2940    0.0897   -1.3045 C   0  0  2  0  0  0  0  0  0  0  0  0
    1.7161    1.5555   -1.7574 C   0  0  0  0  0  0  0  0  0  0  0  0
    0.2815    1.0536   -1.9246 C   0  0  0  0  0  0  0  0  0  0  0  0
   -0.3208    0.7858   -0.6177 C   0  0  1  0  0  0  0  0  0  0  0  0
   -0.7034    1.9069    0.2232 C   0  0  0  0  0  0  0  0  0  0  0  0
   -3.7739   -0.3802    0.6598 C   0  0  2  0  0  0  0  0  0  0  0  0
   -3.6919   -1.7468   -0.3338 C   0  0  1  0  0  0  0  0  0  0  0  0
   -3.0239   -2.6253    0.8341 C   0  0  0  0  0  0  0  0  0  0  0  0
  2  1  1  6
  2  3  1  0
  3  4  1  0
  4  5  1  0
  5  6  1  1
  6  7  2  0
  6  8  1  0
  5  9  1  0
  9 10  1  0
 10 11  1  0
 11 12  1  6
 11 13  1  0
 13 14  2  0
 14 15  1  0
 16 15  1  1
 16 17  1  0
 17 18  1  1
 17 19  1  0
 19 20  1  0
 20 21  1  0
 21 22  1  1
 22 23  1  0
 23 24  2  0
 23 25  2  0
 23 26  1  0
 21 27  1  0
 27 28  1  0
 27 29  1  0
 30 27  1  1
 30 31  1  0
 31 32  1  0
 32 33  1  0
 33 34  1  1
 35 13  1  6
 35 36  1  0
 36 37  1  1
 36  2  1  0
 35  5  1  0
 33 11  1  0
 33 16  1  0
 30 17  1  0
M  END
>  <zinc_id>  (1) 
ZINC000028713629

>  <smiles>  (1) 
C[C@@H]1[C@H]2C3=CC[C@@H]4[C@@]5(C)CC[C@H](OS(=O)(=O)O)C(C)(C)[C@@H]5CC[C@@]4(C)[C@]3(C)CC[C@@]2(C(=O)O)CC[C@H]1C

$$$$
