
     RDKit          3D

 36 40  0  0  0  0  0  0  0  0999 V2000
    7.6865    1.8226    1.0235 C   0  0  0  0  0  0  0  0  0  0  0  0
    6.8411    0.9223    0.1864 C   0  0  0  0  0  0  0  0  0  0  0  0
    7.2898   -0.1121   -0.3642 O   0  0  0  0  0  0  0  0  0  0  0  0
    5.4502    1.0366    0.0911 O   0  0  0  0  0  0  0  0  0  0  0  0
    4.7245   -0.1516    0.7601 C   0  0  1  0  0  0  0  0  0  0  0  0
    3.6337    0.8815    1.4236 C   0  0  0  0  0  0  0  0  0  0  0  0
    2.2670    0.5088    1.1256 C   0  0  0  0  0  0  0  0  0  0  0  0
    2.0190   -0.8084    0.9809 C   0  0  2  0  0  0  0  0  0  0  0  0
    2.5434   -1.4416    2.2978 C   0  0  0  0  0  0  0  0  0  0  0  0
    2.9288   -1.7157    0.0115 C   0  0  1  0  0  0  0  0  0  0  0  0
    1.9538   -1.7740   -1.2970 C   0  0  0  0  0  0  0  0  0  0  0  0
    1.0350   -0.6634   -1.3176 C   0  0  0  0  0  0  0  0  0  0  0  0
   -0.0333   -0.8902   -0.3795 C   0  0  1  0  0  0  0  0  0  0  0  0
   -0.7006   -2.2227   -0.7406 C   0  0  0  0  0  0  0  0  0  0  0  0
    0.5349   -1.4164    1.0494 C   0  0  2  0  0  0  0  0  0  0  0  0
   -0.0480   -0.1231    1.8746 C   0  0  0  0  0  0  0  0  0  0  0  0
   -1.5268   -0.4289    1.7811 C   0  0  0  0  0  0  0  0  0  0  0  0
   -2.1701   -0.2343    0.6045 C   0  0  0  0  0  0  0  0  0  0  0  0
   -3.3193    0.8884    0.7003 C   0  0  2  0  0  0  0  0  0  0  0  0
   -4.4817   -0.2380    1.1906 C   0  0  1  0  0  0  0  0  0  0  0  0
   -4.7769    0.6518    2.5004 C   0  0  0  0  0  0  0  0  0  0  0  0
   -5.7820    0.3095    0.2644 C   0  0  1  0  0  0  0  0  0  0  0  0
   -6.8883    0.2595    1.4510 C   0  0  0  0  0  0  0  0  0  0  0  0
   -5.4856    1.8970    0.4258 C   0  0  0  0  0  0  0  0  0  0  0  0
   -4.7477    1.9857   -0.9185 C   0  0  0  0  0  0  0  0  0  0  0  0
   -3.6764    0.9354   -0.8731 C   0  0  2  0  0  0  0  0  0  0  0  0
   -3.9110   -0.3327   -1.4450 C   0  0  0  0  0  0  0  0  0  0  0  0
   -3.8650   -0.3642   -2.7145 O   0  0  0  0  0  0  0  0  0  0  0  0
   -3.6933   -1.5989   -0.8877 O   0  0  0  0  0  0  0  0  0  0  0  0
   -2.4582    1.5645   -1.5389 C   0  0  0  0  0  0  0  0  0  0  0  0
   -1.5143    0.3730   -1.7239 C   0  0  0  0  0  0  0  0  0  0  0  0
   -1.0331    0.1222   -0.3205 C   0  0  2  0  0  0  0  0  0  0  0  0
   -0.6410    1.5073    0.1782 C   0  0  0  0  0  0  0  0  0  0  0  0
    3.8282   -0.4854   -0.5650 C   0  0  0  0  0  0  0  0  0  0  0  0
    3.2821    0.5898   -1.2170 C   0  0  0  0  0  0  0  0  0  0  0  0
    4.7345   -1.2543   -1.5190 C   0  0  0  0  0  0  0  0  0  0  0  0
  1  2  1  0
  2  3  2  0
  2  4  1  0
  5  4  1  6
  5  6  1  0
  6  7  1  0
  7  8  1  0
  8  9  1  1
  8 10  1  0
 10 11  1  6
 11 12  1  0
 12 13  1  0
 13 14  1  6
 13 15  1  0
 15 16  1  1
 16 17  1  0
 17 18  2  0
 19 18  1  6
 19 20  1  0
 20 21  1  1
 20 22  1  0
 22 23  1  1
 22 24  1  0
 24 25  1  0
 25 26  1  0
 26 27  1  6
 27 28  2  0
 27 29  1  0
 26 30  1  0
 30 31  1  0
 31 32  1  0
 32 33  1  1
 10 34  1  0
 34 35  1  0
 34 36  1  0
 34  5  1  0
 15  8  1  0
 32 18  1  0
 32 13  1  0
 26 19  1  0
M  END
>  <zinc_id>  (1) 
ZINC000230084245

>  <smiles>  (1) 
CC(=O)O[C@H]1CC[C@]2(C)[C@@H](CC[C@@]3(C)[C@@H]2CC=C2[C@@H]4[C@@H](C)[C@@H](C)CC[C@@]4(C(=O)O)CC[C@@]23C)C1(C)C

$$$$
