
     RDKit          3D

 33 38  0  0  0  0  0  0  0  0999 V2000
   -5.1206    0.1280    2.3384 C   0  0  0  0  0  0  0  0  0  0  0  0
   -4.7685    1.4313    1.4261 C   0  0  2  0  0  0  0  0  0  0  0  0
   -5.4033    0.8373    0.0695 C   0  0  0  0  0  0  0  0  0  0  0  0
   -5.0498   -0.5350   -0.1828 C   0  0  0  0  0  0  0  0  0  0  0  0
   -3.6465   -0.7137   -0.4485 C   0  0  1  0  0  0  0  0  0  0  0  0
   -3.0199   -1.6125    0.4768 C   0  0  0  0  0  0  0  0  0  0  0  0
   -1.5460   -1.8729    0.3700 C   0  0  0  0  0  0  0  0  0  0  0  0
   -0.9412   -0.4934    0.3633 C   0  0  2  0  0  0  0  0  0  0  0  0
   -0.8362   -0.1030    1.7947 C   0  0  0  0  0  0  0  0  0  0  0  0
   -1.5813    0.3814   -0.5705 C   0  0  1  0  0  0  0  0  0  0  0  0
   -0.8681    1.6509   -0.6115 C   0  0  0  0  0  0  0  0  0  0  0  0
    0.6105    1.7504   -0.4839 C   0  0  0  0  0  0  0  0  0  0  0  0
    1.2171    0.6369    0.5516 C   0  0  2  0  0  0  0  0  0  0  0  0
    2.6965    0.6127   -0.1417 C   0  0  1  0  0  0  0  0  0  0  0  0
    2.7825    1.0346   -1.4391 C   0  0  0  0  0  0  0  0  0  0  0  0
    3.4418    1.3998    0.9480 C   0  0  0  0  0  0  0  0  0  0  0  0
    4.8735    1.4329    0.4134 C   0  0  0  0  0  0  0  0  0  0  0  0
    5.4727   -0.0753    0.7329 C   0  0  2  0  0  0  0  0  0  0  0  0
    6.7350    0.1724   -0.0690 O   0  0  0  0  0  0  0  0  0  0  0  0
    4.6734   -0.7752   -0.5256 C   0  0  0  0  0  0  0  0  0  0  0  0
    5.2646   -2.1853   -0.5153 C   0  0  0  0  0  0  0  0  0  0  0  0
    4.8777   -0.2792   -1.7527 C   0  0  0  0  0  0  0  0  0  0  0  0
    3.2771   -0.8452    0.2819 C   0  0  2  0  0  0  0  0  0  0  0  0
    2.4742   -1.7043   -0.8648 C   0  0  0  0  0  0  0  0  0  0  0  0
    1.1983   -1.8418    0.0031 C   0  0  0  0  0  0  0  0  0  0  0  0
    0.4766   -0.5882   -0.2247 C   0  0  1  0  0  0  0  0  0  0  0  0
    0.5594   -0.3955   -1.7065 C   0  0  0  0  0  0  0  0  0  0  0  0
   -1.8664   -0.2946   -1.7880 O   0  0  0  0  0  0  0  0  0  0  0  0
   -3.1733   -0.8073   -1.8354 C   0  0  0  0  0  0  0  0  0  0  0  0
   -3.7970   -0.6595   -2.9191 O   0  0  0  0  0  0  0  0  0  0  0  0
   -3.1104    0.8178   -0.4045 C   0  0  2  0  0  0  0  0  0  0  0  0
   -3.1598    0.9701    1.2632 C   0  0  1  0  0  0  0  0  0  0  0  0
   -2.7426    2.5256    1.1593 C   0  0  0  0  0  0  0  0  0  0  0  0
  2  1  1  1
  2  3  1  0
  3  4  1  0
  5  4  1  6
  5  6  1  0
  6  7  1  0
  7  8  1  0
  8  9  1  1
  8 10  1  0
 10 11  1  6
 11 12  1  0
 13 12  1  6
 13 14  1  0
 14 15  1  6
 14 16  1  0
 16 17  1  0
 17 18  1  0
 18 19  1  6
 18 20  1  0
 20 21  1  0
 20 22  1  0
 23 20  1  6
 23 24  1  0
 24 25  1  0
 25 26  1  0
 26 27  1  6
 10 28  1  0
 28 29  1  0
 29 30  2  0
 10 31  1  0
 31 32  1  0
 32 33  1  6
 32  2  1  0
 29  5  1  0
 31  5  1  1
 26  8  1  0
 26 13  1  0
 23 14  1  0
M  END
>  <zinc_id>  (1) 
ZINC000049872295

>  <smiles>  (1) 
C[C@H]1[C@H](C)CC[C@@]23CC[C@]4(C)[C@@](CC[C@@H]5[C@@]6(C)CC[C@H](O)C(C)(C)[C@@H]6CC[C@]54C)(OC2=O)[C@H]13

$$$$
