
     RDKit          3D

 36 40  0  0  0  0  0  0  0  0999 V2000
    7.1710    1.7689   -1.2499 C   0  0  0  0  0  0  0  0  0  0  0  0
    6.7870    0.5117   -0.9166 C   0  0  0  0  0  0  0  0  0  0  0  0
    7.6009   -0.2253   -0.2825 O   0  0  0  0  0  0  0  0  0  0  0  0
    5.5203   -0.0276   -1.1465 O   0  0  0  0  0  0  0  0  0  0  0  0
    5.0886   -1.1450   -0.1727 C   0  0  2  0  0  0  0  0  0  0  0  0
    3.9994   -1.7173   -1.2600 C   0  0  0  0  0  0  0  0  0  0  0  0
    2.6811   -2.0570   -0.8018 C   0  0  0  0  0  0  0  0  0  0  0  0
    1.9661   -1.0336    0.0939 C   0  0  1  0  0  0  0  0  0  0  0  0
    1.9071   -1.5968    1.3536 C   0  0  0  0  0  0  0  0  0  0  0  0
    2.9241    0.2031   -0.2979 C   0  0  1  0  0  0  0  0  0  0  0  0
    2.2934    1.2966    0.7468 C   0  0  0  0  0  0  0  0  0  0  0  0
    1.1364    1.7492   -0.1578 C   0  0  0  0  0  0  0  0  0  0  0  0
    0.1553    0.6820    0.2117 C   0  0  2  0  0  0  0  0  0  0  0  0
    0.2391    0.4638    1.6796 C   0  0  0  0  0  0  0  0  0  0  0  0
    0.5421   -0.6773   -0.5978 C   0  0  2  0  0  0  0  0  0  0  0  0
   -0.3216   -1.6131    0.4291 C   0  0  0  0  0  0  0  0  0  0  0  0
   -1.6071   -1.0245    0.7082 C   0  0  0  0  0  0  0  0  0  0  0  0
   -2.0606    0.1569    0.6808 C   0  0  0  0  0  0  0  0  0  0  0  0
   -3.5855    0.6023    0.4312 C   0  0  2  0  0  0  0  0  0  0  0  0
   -4.1015   -0.3294    1.7438 C   0  0  2  0  0  0  0  0  0  0  0  0
   -3.9886   -1.8270    1.1686 C   0  0  0  0  0  0  0  0  0  0  0  0
   -5.7769   -0.3210    1.5300 C   0  0  1  0  0  0  0  0  0  0  0  0
   -5.9394    1.2745    1.8238 C   0  0  0  0  0  0  0  0  0  0  0  0
   -5.8945   -0.1216   -0.0659 C   0  0  0  0  0  0  0  0  0  0  0  0
   -5.0494   -1.1457   -0.7514 C   0  0  0  0  0  0  0  0  0  0  0  0
   -3.8511   -0.3091   -0.8661 C   0  0  1  0  0  0  0  0  0  0  0  0
   -4.3750    0.7674   -1.8075 C   0  0  0  0  0  0  0  0  0  0  0  0
   -4.7058    1.9243   -1.5818 O   0  0  0  0  0  0  0  0  0  0  0  0
   -4.6683    0.2564   -3.0796 O   0  0  0  0  0  0  0  0  0  0  0  0
   -2.6796   -0.7000   -1.5663 C   0  0  0  0  0  0  0  0  0  0  0  0
   -1.5531    0.2720   -1.5749 C   0  0  0  0  0  0  0  0  0  0  0  0
   -1.2290    0.9658   -0.2921 C   0  0  2  0  0  0  0  0  0  0  0  0
   -1.5835    2.3996   -0.3856 C   0  0  0  0  0  0  0  0  0  0  0  0
    4.1457   -0.1326    0.6915 C   0  0  0  0  0  0  0  0  0  0  0  0
    4.8484    1.2147    0.8287 C   0  0  0  0  0  0  0  0  0  0  0  0
    3.9642   -0.5051    2.0186 C   0  0  0  0  0  0  0  0  0  0  0  0
  1  2  1  0
  2  3  2  0
  2  4  1  0
  5  4  1  6
  5  6  1  0
  6  7  1  0
  7  8  1  0
  8  9  1  1
  8 10  1  0
 10 11  1  1
 11 12  1  0
 12 13  1  0
 13 14  1  1
 13 15  1  0
 15 16  1  1
 16 17  1  0
 17 18  2  0
 19 18  1  1
 19 20  1  0
 20 21  1  6
 20 22  1  0
 22 23  1  1
 22 24  1  0
 24 25  1  0
 25 26  1  0
 26 27  1  6
 27 28  2  0
 27 29  1  0
 26 30  1  0
 30 31  1  0
 31 32  1  0
 32 33  1  6
 10 34  1  0
 34 35  1  0
 34 36  1  0
 34  5  1  0
 15  8  1  0
 32 18  1  0
 32 13  1  0
 26 19  1  0
M  END
>  <zinc_id>  (1) 
ZINC000100779519

>  <smiles>  (1) 
CC(=O)O[C@@H]1CC[C@@]2(C)[C@@H](CC[C@]3(C)[C@@H]2CC=C2[C@@H]4[C@H](C)[C@@H](C)CC[C@]4(C(=O)O)CC[C@@]23C)C1(C)C

$$$$
