REMARK  Name = 
REMARK  3 active torsions:
REMARK  status: ('A' for Active; 'I' for Inactive)
REMARK    1  A    between atoms: C_2  and  O_4
REMARK    2  A    between atoms: O_4  and  C_5
REMARK    3  A    between atoms: C_26  and  C_27
REMARK                            x       y       z     vdW  Elec       q    Type
REMARK                         _______ _______ _______ _____ _____    ______ ____
ROOT
ATOM      5  C   UNL     1      -4.596  -0.067   0.760  0.00  0.00    +0.000 C 
ATOM      6  C   UNL     1      -4.097   1.209  -0.157  0.00  0.00    +0.000 C 
ATOM      7  C   UNL     1      -2.754   1.335   0.565  0.00  0.00    +0.000 C 
ATOM      8  C   UNL     1      -2.055  -0.029   0.508  0.00  0.00    +0.000 C 
ATOM      9  C   UNL     1      -2.114  -0.849   1.615  0.00  0.00    +0.000 C 
ATOM     10  C   UNL     1      -2.672  -0.562  -0.888  0.00  0.00    +0.000 C 
ATOM     11  C   UNL     1      -1.862  -1.984  -0.891  0.00  0.00    +0.000 C 
ATOM     12  C   UNL     1      -0.626  -1.389  -1.567  0.00  0.00    +0.000 C 
ATOM     13  C   UNL     1       0.085  -0.849  -0.391  0.00  0.00    +0.000 C 
ATOM     14  C   UNL     1       0.085  -1.870   0.682  0.00  0.00    +0.000 C 
ATOM     15  C   UNL     1      -0.588   0.539   0.098  0.00  0.00    +0.000 C 
ATOM     16  C   UNL     1       0.009   0.422   1.618  0.00  0.00    +0.000 C 
ATOM     17  C   UNL     1       1.472   0.263   1.526  0.00  0.00    +0.000 C 
ATOM     18  C   UNL     1       2.096   0.143   0.412  0.00  0.00    +0.000 C 
ATOM     19  C   UNL     1       3.593  -0.408   0.336  0.00  0.00    +0.000 C 
ATOM     20  C   UNL     1       4.137   0.286   1.775  0.00  0.00    +0.000 C 
ATOM     21  C   UNL     1       4.805   1.670   1.341  0.00  0.00    +0.000 C 
ATOM     22  C   UNL     1       5.637  -0.511   1.709  0.00  0.00    +0.000 C 
ATOM     23  C   UNL     1       4.909  -1.956   1.887  0.00  0.00    +0.000 C 
ATOM     24  C   UNL     1       5.831  -0.717   0.122  0.00  0.00    +0.000 C 
ATOM     25  C   UNL     1       5.507   0.436  -0.708  0.00  0.00    +0.000 C 
ATOM     26  C   UNL     1       4.054   0.675  -0.760  0.00  0.00    +0.000 C 
ATOM     30  C   UNL     1       3.406   0.005  -1.987  0.00  0.00    +0.000 C 
ATOM     31  C   UNL     1       1.881   0.169  -1.929  0.00  0.00    +0.000 C 
ATOM     32  C   UNL     1       1.477  -0.595  -0.739  0.00  0.00    +0.000 C 
ATOM     33  C   UNL     1       2.020  -2.008  -0.932  0.00  0.00    +0.000 C 
ATOM     34  C   UNL     1      -4.025  -1.196  -0.269  0.00  0.00    +0.000 C 
ATOM     35  C   UNL     1      -4.868  -1.310  -1.472  0.00  0.00    +0.000 C 
ATOM     36  C   UNL     1      -3.815  -2.437   0.456  0.00  0.00    +0.000 C 
ENDROOT
BRANCH  26  27
ATOM     27  C   UNL     1       3.481   1.931  -0.774  0.00  0.00    +0.000 C 
ATOM     28  O   UNL     1       4.146   2.740  -1.502  0.00  0.00    +0.000 OA
ATOM     29  O   UNL     1       2.369   2.539  -0.278  0.00  0.00    +0.000 OA
ENDBRANCH  26  27
BRANCH   5   4
ATOM      4  O   UNL     1      -6.006  -0.032   0.147  0.00  0.00    +0.000 OA
BRANCH   4   2
ATOM      1  C   UNL     1      -8.015   1.091   0.012  0.00  0.00    +0.000 C 
ATOM      2  C   UNL     1      -6.746   1.104   0.331  0.00  0.00    +0.000 C 
ATOM      3  O   UNL     1      -6.158   2.213   0.463  0.00  0.00    +0.000 OA
ENDBRANCH   4   2
ENDBRANCH   5   4
TORSDOF 3
