
     RDKit          3D

 36 40  0  0  0  0  0  0  0  0999 V2000
    7.8768   -0.2976    1.8967 C   0  0  0  0  0  0  0  0  0  0  0  0
    6.5970    0.3852    1.5525 C   0  0  0  0  0  0  0  0  0  0  0  0
    6.5058    1.6399    1.6497 O   0  0  0  0  0  0  0  0  0  0  0  0
    5.8396   -0.1925    0.5294 O   0  0  0  0  0  0  0  0  0  0  0  0
    4.4480    0.4599    0.4112 C   0  0  2  0  0  0  0  0  0  0  0  0
    3.7251   -0.7952    1.2017 C   0  0  0  0  0  0  0  0  0  0  0  0
    2.4103   -0.0361    1.4007 C   0  0  0  0  0  0  0  0  0  0  0  0
    2.0107    0.3705   -0.0198 C   0  0  1  0  0  0  0  0  0  0  0  0
    2.1899    1.6936   -0.4410 C   0  0  0  0  0  0  0  0  0  0  0  0
    2.6494   -0.7643   -0.9908 C   0  0  1  0  0  0  0  0  0  0  0  0
    2.1087   -0.0446   -2.3592 C   0  0  0  0  0  0  0  0  0  0  0  0
    0.7048   -0.6427   -2.3617 C   0  0  0  0  0  0  0  0  0  0  0  0
   -0.0551    0.1827   -1.3969 C   0  0  2  0  0  0  0  0  0  0  0  0
   -0.1123    1.6323   -1.6693 C   0  0  0  0  0  0  0  0  0  0  0  0
    0.4691   -0.1326    0.1083 C   0  0  2  0  0  0  0  0  0  0  0  0
   -0.0670    1.2835    0.7322 C   0  0  0  0  0  0  0  0  0  0  0  0
   -1.5665    1.1538    0.7234 C   0  0  0  0  0  0  0  0  0  0  0  0
   -2.0805    0.3428   -0.1009 C   0  0  0  0  0  0  0  0  0  0  0  0
   -3.6357    0.3038   -0.4781 C   0  0  2  0  0  0  0  0  0  0  0  0
   -4.1775    1.3718    0.7222 C   0  0  2  0  0  0  0  0  0  0  0  0
   -4.1915    0.4609    2.0298 C   0  0  0  0  0  0  0  0  0  0  0  0
   -5.7814    1.1474    0.2097 C   0  0  2  0  0  0  0  0  0  0  0  0
   -6.3553    1.9569    1.4930 C   0  0  0  0  0  0  0  0  0  0  0  0
   -6.0659   -0.2979    0.8809 C   0  0  0  0  0  0  0  0  0  0  0  0
   -5.3297   -1.3378    0.1244 C   0  0  0  0  0  0  0  0  0  0  0  0
   -3.8641   -1.1418    0.1757 C   0  0  2  0  0  0  0  0  0  0  0  0
   -3.1051   -1.6342    1.2379 C   0  0  0  0  0  0  0  0  0  0  0  0
   -1.9775   -2.2299    1.2414 O   0  0  0  0  0  0  0  0  0  0  0  0
   -3.8842   -2.4683    2.0860 O   0  0  0  0  0  0  0  0  0  0  0  0
   -3.2771   -1.8981   -1.0347 C   0  0  0  0  0  0  0  0  0  0  0  0
   -1.7840   -1.6937   -1.1956 C   0  0  0  0  0  0  0  0  0  0  0  0
   -1.4615   -0.2649   -1.3266 C   0  0  2  0  0  0  0  0  0  0  0  0
   -2.0941    0.2390   -2.6195 C   0  0  0  0  0  0  0  0  0  0  0  0
    4.1399   -0.1387   -1.0752 C   0  0  0  0  0  0  0  0  0  0  0  0
    4.2588    0.9588   -2.0184 C   0  0  0  0  0  0  0  0  0  0  0  0
    4.9321   -1.3618   -1.3190 C   0  0  0  0  0  0  0  0  0  0  0  0
  1  2  1  0
  2  3  2  0
  2  4  1  0
  5  4  1  1
  5  6  1  0
  6  7  1  0
  7  8  1  0
  8  9  1  6
  8 10  1  0
 10 11  1  6
 11 12  1  0
 12 13  1  0
 13 14  1  6
 13 15  1  0
 15 16  1  1
 16 17  1  0
 17 18  2  0
 19 18  1  1
 19 20  1  0
 20 21  1  1
 20 22  1  0
 22 23  1  1
 22 24  1  0
 24 25  1  0
 25 26  1  0
 26 27  1  1
 27 28  2  0
 27 29  1  0
 26 30  1  0
 30 31  1  0
 31 32  1  0
 32 33  1  6
 10 34  1  0
 34 35  1  0
 34 36  1  0
 34  5  1  0
 15  8  1  0
 32 18  1  0
 32 13  1  0
 26 19  1  0
M  END
>  <zinc_id>  (1) 
ZINC000100779523

>  <smiles>  (1) 
CC(=O)O[C@@H]1CC[C@@]2(C)[C@@H](CC[C@]3(C)[C@@H]2CC=C2[C@@H]4[C@H](C)[C@H](C)CC[C@@]4(C(=O)O)CC[C@@]23C)C1(C)C

$$$$
