
     RDKit          3D

 36 40  0  0  0  0  0  0  0  0999 V2000
    7.8830   -0.1629    0.8214 C   0  0  0  0  0  0  0  0  0  0  0  0
    6.6271    0.0344    0.7493 C   0  0  0  0  0  0  0  0  0  0  0  0
    6.1208    0.8152    1.6123 O   0  0  0  0  0  0  0  0  0  0  0  0
    5.8752   -0.4940   -0.3060 O   0  0  0  0  0  0  0  0  0  0  0  0
    4.3776   -0.4676    0.0547 C   0  0  2  0  0  0  0  0  0  0  0  0
    4.0670   -1.8130   -0.8484 C   0  0  0  0  0  0  0  0  0  0  0  0
    2.5909   -1.7887   -1.1048 C   0  0  0  0  0  0  0  0  0  0  0  0
    1.9730   -0.6111   -0.4366 C   0  0  1  0  0  0  0  0  0  0  0  0
    2.1072   -0.4550    0.9788 C   0  0  0  0  0  0  0  0  0  0  0  0
    2.4499    0.6537   -1.3329 C   0  0  1  0  0  0  0  0  0  0  0  0
    2.2306    1.7143   -0.1000 C   0  0  0  0  0  0  0  0  0  0  0  0
    0.7456    1.5926    0.0602 C   0  0  0  0  0  0  0  0  0  0  0  0
    0.0140    0.8057   -0.9059 C   0  0  1  0  0  0  0  0  0  0  0  0
    0.1481    1.2492   -2.3655 C   0  0  0  0  0  0  0  0  0  0  0  0
    0.4090   -0.7683   -0.8971 C   0  0  2  0  0  0  0  0  0  0  0  0
   -0.0715   -1.1390    0.6146 C   0  0  0  0  0  0  0  0  0  0  0  0
   -1.0218   -0.2235    1.1517 C   0  0  0  0  0  0  0  0  0  0  0  0
   -1.9961    0.1328    0.3689 C   0  0  0  0  0  0  0  0  0  0  0  0
   -3.2715    0.8854    0.9632 C   0  0  2  0  0  0  0  0  0  0  0  0
   -3.5616   -0.3092    2.1232 C   0  0  1  0  0  0  0  0  0  0  0  0
   -3.6560    0.8340    3.2559 C   0  0  0  0  0  0  0  0  0  0  0  0
   -5.2185   -0.5033    1.8803 C   0  0  1  0  0  0  0  0  0  0  0  0
   -5.6106   -0.5281    3.4542 C   0  0  0  0  0  0  0  0  0  0  0  0
   -5.5751    1.0631    1.6521 C   0  0  0  0  0  0  0  0  0  0  0  0
   -5.5465    0.9009    0.1229 C   0  0  0  0  0  0  0  0  0  0  0  0
   -4.2188    0.3455   -0.2326 C   0  0  2  0  0  0  0  0  0  0  0  0
   -4.0121   -0.9612   -0.6530 C   0  0  0  0  0  0  0  0  0  0  0  0
   -4.0450   -1.1741   -1.9166 O   0  0  0  0  0  0  0  0  0  0  0  0
   -4.0293   -2.2212   -0.0841 O   0  0  0  0  0  0  0  0  0  0  0  0
   -3.7059    1.2921   -1.3356 C   0  0  0  0  0  0  0  0  0  0  0  0
   -2.3520    0.8151   -1.8681 C   0  0  0  0  0  0  0  0  0  0  0  0
   -1.4328    0.9976   -0.7143 C   0  0  2  0  0  0  0  0  0  0  0  0
   -1.5486    2.4832   -0.3700 C   0  0  0  0  0  0  0  0  0  0  0  0
    4.0513    0.5488   -1.1643 C   0  0  0  0  0  0  0  0  0  0  0  0
    4.5817    1.8943   -0.8037 C   0  0  0  0  0  0  0  0  0  0  0  0
    4.6218    0.0023   -2.4238 C   0  0  0  0  0  0  0  0  0  0  0  0
  1  2  1  0
  2  3  2  0
  2  4  1  0
  5  4  1  6
  5  6  1  0
  6  7  1  0
  7  8  1  0
  8  9  1  1
  8 10  1  0
 10 11  1  1
 11 12  1  0
 12 13  1  0
 13 14  1  6
 13 15  1  0
 15 16  1  1
 16 17  1  0
 17 18  2  0
 19 18  1  6
 19 20  1  0
 20 21  1  1
 20 22  1  0
 22 23  1  1
 22 24  1  0
 24 25  1  0
 25 26  1  0
 26 27  1  6
 27 28  2  0
 27 29  1  0
 26 30  1  0
 30 31  1  0
 31 32  1  0
 32 33  1  1
 10 34  1  0
 34 35  1  0
 34 36  1  0
 34  5  1  0
 15  8  1  0
 32 18  1  0
 32 13  1  0
 26 19  1  0
M  END
>  <zinc_id>  (1) 
ZINC000230084228

>  <smiles>  (1) 
CC(=O)O[C@@H]1CC[C@@]2(C)[C@@H](CC[C@@]3(C)[C@@H]2CC=C2[C@@H]4[C@@H](C)[C@@H](C)CC[C@@]4(C(=O)O)CC[C@@]23C)C1(C)C

$$$$
