
     RDKit          3D

 36 41  0  0  0  0  0  0  0  0999 V2000
    7.2099    1.7268   -1.3597 C   0  0  0  0  0  0  0  0  0  0  0  0
    6.1317    1.7172   -0.7060 C   0  0  0  0  0  0  0  0  0  0  0  0
    5.6321    2.8519   -0.4266 O   0  0  0  0  0  0  0  0  0  0  0  0
    5.4029    0.5462   -0.4534 O   0  0  0  0  0  0  0  0  0  0  0  0
    4.4769    0.7991    0.7533 C   0  0  1  0  0  0  0  0  0  0  0  0
    3.2861    1.3802   -0.2246 C   0  0  0  0  0  0  0  0  0  0  0  0
    2.8943    0.3423   -1.1985 C   0  0  0  0  0  0  0  0  0  0  0  0
    1.9968   -0.6969   -0.6185 C   0  0  1  0  0  0  0  0  0  0  0  0
    1.9936   -2.0212   -1.0881 C   0  0  0  0  0  0  0  0  0  0  0  0
    2.3203   -0.4852    0.9634 C   0  0  1  0  0  0  0  0  0  0  0  0
    1.9401   -2.0217    1.3587 C   0  0  0  0  0  0  0  0  0  0  0  0
    0.4443   -1.7164    1.4677 C   0  0  0  0  0  0  0  0  0  0  0  0
   -0.2092   -1.3482    0.2110 C   0  0  2  0  0  0  0  0  0  0  0  0
   -0.5543   -2.4027   -0.7211 C   0  0  0  0  0  0  0  0  0  0  0  0
    0.5064   -0.0581   -0.4779 C   0  0  2  0  0  0  0  0  0  0  0  0
    0.0334   -0.4488   -1.9909 C   0  0  0  0  0  0  0  0  0  0  0  0
   -1.4075   -0.0386   -1.9291 C   0  0  0  0  0  0  0  0  0  0  0  0
   -2.1450   -0.4007   -0.6908 C   0  0  2  0  0  0  0  0  0  0  0  0
   -2.8972   -1.5805   -1.0045 O   0  0  0  0  0  0  0  0  0  0  0  0
   -4.1461   -1.5623   -0.3963 C   0  0  0  0  0  0  0  0  0  0  0  0
   -5.1562   -2.0928   -0.9510 O   0  0  0  0  0  0  0  0  0  0  0  0
   -4.2078   -0.3337    0.3753 C   0  0  2  0  0  0  0  0  0  0  0  0
   -5.5097    0.3605    0.4932 C   0  0  0  0  0  0  0  0  0  0  0  0
   -5.1807    1.6492    1.2495 C   0  0  0  0  0  0  0  0  0  0  0  0
   -4.4284    2.5497    0.1315 C   0  0  1  0  0  0  0  0  0  0  0  0
   -4.0008    3.6922    1.1993 C   0  0  0  0  0  0  0  0  0  0  0  0
   -2.9694    1.7380    0.3295 C   0  0  2  0  0  0  0  0  0  0  0  0
   -2.2663    2.6078   -0.8228 C   0  0  0  0  0  0  0  0  0  0  0  0
   -3.4464    0.5437   -0.7547 C   0  0  1  0  0  0  0  0  0  0  0  0
   -3.4937   -0.3247    1.6527 C   0  0  0  0  0  0  0  0  0  0  0  0
   -2.3763   -1.3642    1.5118 C   0  0  0  0  0  0  0  0  0  0  0  0
   -1.4959   -0.5757    0.5449 C   0  0  1  0  0  0  0  0  0  0  0  0
   -0.9693    0.5403    1.3854 C   0  0  0  0  0  0  0  0  0  0  0  0
    3.9123   -0.7363    0.8324 C   0  0  0  0  0  0  0  0  0  0  0  0
    4.3736   -1.6084   -0.1514 C   0  0  0  0  0  0  0  0  0  0  0  0
    4.3055   -1.2281    2.2238 C   0  0  0  0  0  0  0  0  0  0  0  0
  1  2  1  0
  2  3  2  0
  2  4  1  0
  5  4  1  6
  5  6  1  0
  6  7  1  0
  7  8  1  0
  8  9  1  6
  8 10  1  0
 10 11  1  1
 11 12  1  0
 12 13  1  0
 13 14  1  6
 13 15  1  0
 15 16  1  6
 16 17  1  0
 18 17  1  6
 18 19  1  0
 19 20  1  0
 20 21  2  0
 22 20  1  6
 22 23  1  0
 23 24  1  0
 24 25  1  0
 25 26  1  1
 25 27  1  0
 27 28  1  6
 27 29  1  0
 22 30  1  0
 30 31  1  0
 31 32  1  0
 32 33  1  1
 10 34  1  0
 34 35  1  0
 34 36  1  0
 34  5  1  0
 15  8  1  0
 29 18  1  0
 32 13  1  0
 32 18  1  0
 29 22  1  1
M  END
>  <zinc_id>  (1) 
ZINC000049872350

>  <smiles>  (1) 
CC(=O)O[C@H]1CC[C@@]2(C)[C@@H](CC[C@]3(C)[C@@H]2CC[C@]24OC(=O)[C@@]5(CC[C@@H](C)[C@H](C)[C@H]52)CC[C@]43C)C1(C)C

$$$$
