REMARK  Name = 
REMARK  6 active torsions:
REMARK  status: ('A' for Active; 'I' for Inactive)
REMARK    1  A    between atoms: O_2  and  C_3
REMARK    2  A    between atoms: C_6  and  C_7
REMARK    3  A    between atoms: C_8  and  C_9
REMARK    4  A    between atoms: C_11  and  O_12
REMARK    5  A    between atoms: C_14  and  O_15
REMARK    6  A    between atoms: C_17  and  O_18
REMARK                            x       y       z     vdW  Elec       q    Type
REMARK                         _______ _______ _______ _____ _____    ______ ____
ROOT
ATOM      1  C   UNL     1      -1.024   0.412  -1.553  0.00  0.00    +0.000 C 
ATOM      2  C   UNL     1       0.058  -0.364  -1.496  0.00  0.00    +0.000 C 
ENDROOT
BRANCH   1   6
ATOM      3  C   UNL     1      -4.521   0.666   0.590  0.00  0.00    +0.000 A 
ATOM      4  C   UNL     1      -3.562   1.643   0.804  0.00  0.00    +0.000 A 
ATOM      5  C   UNL     1      -2.272   1.499   0.311  0.00  0.00    +0.000 A 
ATOM      6  C   UNL     1      -1.883   0.348  -0.363  0.00  0.00    +0.000 A 
ATOM      7  C   UNL     1      -2.750  -0.730  -0.247  0.00  0.00    +0.000 A 
ATOM      8  O   UNL     1      -2.317  -1.967  -0.695  0.00  0.00    +0.000 OA
ATOM      9  C   UNL     1      -4.043  -0.589   0.243  0.00  0.00    +0.000 A 
ATOM     10  O   UNL     1      -4.986  -1.610   0.140  0.00  0.00    +0.000 OA
BRANCH   3  12
ATOM     11  C   UNL     1      -6.221   1.795  -0.799  0.00  0.00    +0.000 C 
ATOM     12  O   UNL     1      -5.846   1.004   0.316  0.00  0.00    +0.000 OA
ENDBRANCH   3  12
ENDBRANCH   1   6
BRANCH   2  13
ATOM     13  C   UNL     1       0.929  -0.107  -0.340  0.00  0.00    +0.000 A 
ATOM     14  C   UNL     1       1.583  -1.202   0.208  0.00  0.00    +0.000 A 
ATOM     15  C   UNL     1       2.905  -1.139   0.631  0.00  0.00    +0.000 A 
ATOM     16  C   UNL     1       3.633   0.032   0.461  0.00  0.00    +0.000 A 
ATOM     17  C   UNL     1       2.892   1.187   0.245  0.00  0.00    +0.000 A 
ATOM     18  C   UNL     1       1.563   1.115  -0.156  0.00  0.00    +0.000 A 
BRANCH  15  19
ATOM     19  O   UNL     1       3.610  -2.237   1.080  0.00  0.00    +0.000 OA
ATOM     20  C   UNL     1       3.115  -3.548   1.145  0.00  0.00    +0.000 C 
ENDBRANCH  15  19
BRANCH  16  21
ATOM     21  O   UNL     1       4.978   0.019   0.083  0.00  0.00    +0.000 OA
ATOM     22  C   UNL     1       5.572  -1.049  -0.623  0.00  0.00    +0.000 C 
ENDBRANCH  16  21
BRANCH  17  23
ATOM     23  O   UNL     1       3.591   2.382   0.092  0.00  0.00    +0.000 OA
ATOM     24  C   UNL     1       4.996   2.441   0.140  0.00  0.00    +0.000 C 
ENDBRANCH  17  23
ENDBRANCH   2  13
TORSDOF 6
