REMARK  Name = 
REMARK  5 active torsions:
REMARK  status: ('A' for Active; 'I' for Inactive)
REMARK    1  A    between atoms: C_2  and  C_3
REMARK    2  A    between atoms: C_5  and  O_6
REMARK    3  A    between atoms: O_6  and  C_7
REMARK    4  A    between atoms: C_12  and  C_13
REMARK    5  A    between atoms: C_14  and  C_15
REMARK                            x       y       z     vdW  Elec       q    Type
REMARK                         _______ _______ _______ _____ _____    ______ ____
ROOT
ATOM      1  C   UNL     1      -1.444  -1.667   0.036  0.00  0.00    +0.000 A 
ATOM      2  C   UNL     1      -0.967  -2.564   0.997  0.00  0.00    +0.000 A 
ATOM      3  C   UNL     1       0.368  -2.637   1.342  0.00  0.00    +0.000 A 
ATOM      4  O   UNL     1       0.829  -3.022   2.586  0.00  0.00    +0.000 OA
ATOM      5  C   UNL     1       1.191  -2.336   0.264  0.00  0.00    +0.000 A 
ATOM      6  C   UNL     1       0.847  -1.234  -0.519  0.00  0.00    +0.000 A 
ATOM      7  C   UNL     1      -0.514  -0.990  -0.695  0.00  0.00    +0.000 A 
ENDROOT
BRANCH   6   8
ATOM      8  C   UNL     1       1.857  -0.235  -0.919  0.00  0.00    +0.000 C 
ATOM      9  C   UNL     1       3.114  -0.542  -0.798  0.00  0.00    +0.000 C 
BRANCH   9  10
ATOM     10  C   UNL     1       4.167   0.208  -0.157  0.00  0.00    +0.000 A 
ATOM     11  C   UNL     1       3.998   0.963   1.000  0.00  0.00    +0.000 A 
ATOM     12  C   UNL     1       4.899   1.997   1.230  0.00  0.00    +0.000 A 
ATOM     13  C   UNL     1       5.971   2.159   0.374  0.00  0.00    +0.000 A 
ATOM     14  O   UNL     1       6.415   3.412  -0.062  0.00  0.00    +0.000 OA
ATOM     15  C   UNL     1       6.375   0.990  -0.263  0.00  0.00    +0.000 A 
ATOM     16  C   UNL     1       5.488  -0.052  -0.494  0.00  0.00    +0.000 A 
ATOM     17  O   UNL     1       5.854  -1.260  -1.046  0.00  0.00    +0.000 OA
ENDBRANCH   9  10
ENDBRANCH   6   8
BRANCH   1  18
ATOM     18  O   UNL     1      -2.747  -1.867  -0.131  0.00  0.00    +0.000 OA
BRANCH  18  21
ATOM     19  C   UNL     1      -4.083   1.001  -0.905  0.00  0.00    +0.000 C 
ATOM     20  O   UNL     1      -2.850   0.442  -0.165  0.00  0.00    +0.000 OA
ATOM     21  C   UNL     1      -3.654  -0.736  -0.759  0.00  0.00    +0.000 C 
ATOM     22  C   UNL     1      -4.810  -0.912   0.555  0.00  0.00    +0.000 C 
ATOM     23  O   UNL     1      -5.976  -0.302  -0.227  0.00  0.00    +0.000 OA
ATOM     24  C   UNL     1      -4.575   0.443   1.603  0.00  0.00    +0.000 C 
ATOM     25  O   UNL     1      -3.064   0.260   1.792  0.00  0.00    +0.000 OA
ATOM     26  C   UNL     1      -4.473   1.822   0.555  0.00  0.00    +0.000 C 
ATOM     27  O   UNL     1      -5.974   1.847   0.299  0.00  0.00    +0.000 OA
BRANCH  19  29
ATOM     28  O   UNL     1      -3.039   2.501  -1.400  0.00  0.00    +0.000 OA
ATOM     29  C   UNL     1      -3.203   2.310  -1.454  0.00  0.00    +0.000 C 
ENDBRANCH  19  29
ENDBRANCH  18  21
ENDBRANCH   1  18
TORSDOF 5
