REMARK  Name = 
REMARK  6 active torsions:
REMARK  status: ('A' for Active; 'I' for Inactive)
REMARK    1  A    between atoms: O_2  and  C_3
REMARK    2  A    between atoms: C_6  and  C_7
REMARK    3  A    between atoms: C_14  and  O_15
REMARK    4  A    between atoms: C_17  and  O_18
REMARK    5  A    between atoms: C_22  and  O_23
REMARK    6  A    between atoms: C_25  and  O_26
REMARK                            x       y       z     vdW  Elec       q    Type
REMARK                         _______ _______ _______ _____ _____    ______ ____
ROOT
ATOM      1  C   UNL     1       0.231  -0.661   0.834  0.00  0.00    +0.000 C 
ATOM      2  C   UNL     1      -0.662  -1.174   0.022  0.00  0.00    +0.000 C 
ATOM      3  C   UNL     1      -0.362  -1.886  -1.216  0.00  0.00    +0.000 C 
ATOM      4  O   UNL     1       0.707  -2.506  -1.392  0.00  0.00    +0.000 OA
ATOM      5  N   UNL     1      -1.598  -1.938  -1.924  0.00  0.00    +0.000 NA
ATOM      6  C   UNL     1      -2.575  -1.117  -1.273  0.00  0.00    +0.000 A 
ATOM      7  C   UNL     1      -3.778  -0.553  -1.680  0.00  0.00    +0.000 A 
ATOM      8  C   UNL     1      -4.425   0.288  -0.784  0.00  0.00    +0.000 A 
ATOM      9  C   UNL     1      -4.147   0.089   0.561  0.00  0.00    +0.000 A 
ATOM     10  C   UNL     1      -2.985  -0.502   0.988  0.00  0.00    +0.000 A 
ATOM     11  C   UNL     1      -2.115  -0.999   0.032  0.00  0.00    +0.000 A 
ENDROOT
BRANCH   1  15
ATOM     12  C   UNL     1       4.224   0.347   1.191  0.00  0.00    +0.000 A 
ATOM     13  C   UNL     1       3.665  -0.618   1.993  0.00  0.00    +0.000 A 
ATOM     14  C   UNL     1       2.474  -1.226   1.613  0.00  0.00    +0.000 A 
ATOM     15  C   UNL     1       1.679  -0.722   0.592  0.00  0.00    +0.000 A 
ATOM     16  C   UNL     1       2.201   0.356  -0.106  0.00  0.00    +0.000 A 
ATOM     17  C   UNL     1       3.520   0.744   0.064  0.00  0.00    +0.000 A 
BRANCH  12  19
ATOM     18  C   UNL     1       6.233   0.907   2.514  0.00  0.00    +0.000 C 
ATOM     19  O   UNL     1       5.183   1.256   1.652  0.00  0.00    +0.000 OA
ENDBRANCH  12  19
BRANCH  16  20
ATOM     20  O   UNL     1       1.542   0.777  -1.265  0.00  0.00    +0.000 OA
ATOM     21  C   UNL     1       2.314   0.696  -2.461  0.00  0.00    +0.000 C 
ENDBRANCH  16  20
BRANCH  17  22
ATOM     22  O   UNL     1       4.039   1.735  -0.768  0.00  0.00    +0.000 OA
ATOM     23  C   UNL     1       5.332   1.578  -1.300  0.00  0.00    +0.000 C 
ENDBRANCH  17  22
ENDBRANCH   1  15
BRANCH   8  24
ATOM     24  O   UNL     1      -5.191   1.367  -1.181  0.00  0.00    +0.000 OA
ATOM     25  C   UNL     1      -4.954   2.673  -0.688  0.00  0.00    +0.000 C 
ENDBRANCH   8  24
BRANCH   9  26
ATOM     26  O   UNL     1      -4.914   0.830   1.461  0.00  0.00    +0.000 OA
ATOM     27  C   UNL     1      -5.638   0.258   2.523  0.00  0.00    +0.000 C 
ENDBRANCH   9  26
TORSDOF 6
