REMARK  Name = 
REMARK  4 active torsions:
REMARK  status: ('A' for Active; 'I' for Inactive)
REMARK    1  A    between atoms: O_2  and  C_3
REMARK    2  A    between atoms: C_8  and  C_9
REMARK    3  A    between atoms: C_16  and  O_17
REMARK    4  A    between atoms: C_19  and  O_20
REMARK                            x       y       z     vdW  Elec       q    Type
REMARK                         _______ _______ _______ _____ _____    ______ ____
ROOT
ATOM      1  C   UNL     1       0.573  -0.708  -0.514  0.00  0.00    +0.000 C 
ATOM      2  C   UNL     1      -0.311  -0.374   0.426  0.00  0.00    +0.000 C 
ATOM      3  C   UNL     1      -0.059   0.560   1.523  0.00  0.00    +0.000 C 
ATOM      4  O   UNL     1       1.014   0.581   2.199  0.00  0.00    +0.000 OA
ATOM      5  N   UNL     1      -1.343   1.080   1.880  0.00  0.00    +0.000 NA
ATOM      6  C   UNL     1      -2.329   0.636   0.949  0.00  0.00    +0.000 A 
ATOM      7  C   UNL     1      -3.650   0.978   0.688  0.00  0.00    +0.000 A 
ATOM      8  C   UNL     1      -4.360   0.131  -0.155  0.00  0.00    +0.000 A 
ATOM      9  C   UNL     1      -3.929  -1.179  -0.327  0.00  0.00    +0.000 A 
ATOM     10  C   UNL     1      -2.560  -1.423  -0.313  0.00  0.00    +0.000 A 
ATOM     11  C   UNL     1      -1.773  -0.485   0.343  0.00  0.00    +0.000 A 
ENDROOT
BRANCH   1  17
ATOM     12  C   UNL     1       2.376   1.001  -0.553  0.00  0.00    +0.000 A 
ATOM     13  C   UNL     1       3.684   1.311  -0.200  0.00  0.00    +0.000 A 
ATOM     14  C   UNL     1       4.596   0.274  -0.086  0.00  0.00    +0.000 A 
ATOM     15  C   UNL     1       4.258  -0.993  -0.547  0.00  0.00    +0.000 A 
ATOM     16  C   UNL     1       2.905  -1.281  -0.658  0.00  0.00    +0.000 A 
ATOM     17  C   UNL     1       1.972  -0.308  -0.319  0.00  0.00    +0.000 A 
ATOM     18  O   UNL     1       5.434  -1.621  -0.932  0.00  0.00    +0.000 OA
ATOM     19  C   UNL     1       6.460  -1.015  -0.164  0.00  0.00    +0.000 C 
ATOM     20  O   UNL     1       5.900   0.157   0.402  0.00  0.00    +0.000 OA
BRANCH  12  22
ATOM     21  C   UNL     1       1.906   3.128  -1.558  0.00  0.00    +0.000 C 
ATOM     22  O   UNL     1       1.437   1.992  -0.858  0.00  0.00    +0.000 OA
ENDBRANCH  12  22
ENDBRANCH   1  17
BRANCH   8  23
ATOM     23  O   UNL     1      -5.536   0.506  -0.783  0.00  0.00    +0.000 OA
ATOM     24  C   UNL     1      -6.068   1.803  -0.737  0.00  0.00    +0.000 C 
ENDBRANCH   8  23
BRANCH   9  25
ATOM     25  O   UNL     1      -4.862  -2.216  -0.416  0.00  0.00    +0.000 OA
ATOM     26  C   UNL     1      -5.734  -2.533   0.666  0.00  0.00    +0.000 C 
ENDBRANCH   9  25
TORSDOF 4
