REMARK  Name = 
REMARK  6 active torsions:
REMARK  status: ('A' for Active; 'I' for Inactive)
REMARK    1  A    between atoms: O_2  and  C_3
REMARK    2  A    between atoms: C_5  and  O_6
REMARK    3  A    between atoms: C_8  and  N_9
REMARK    4  A    between atoms: C_13  and  C_14
REMARK    5  A    between atoms: C_15  and  C_16
REMARK    6  A    between atoms: C_15  and  C_18
REMARK                            x       y       z     vdW  Elec       q    Type
REMARK                         _______ _______ _______ _____ _____    ______ ____
ROOT
ATOM      1  C   UNL     1       1.689  -0.748  -1.513  0.00  0.00    +0.000 A 
ATOM      2  C   UNL     1       2.959  -1.104  -1.076  0.00  0.00    +0.000 A 
ATOM      3  C   UNL     1       3.555  -0.460   0.002  0.00  0.00    +0.000 A 
ATOM      4  C   UNL     1       2.769   0.361   0.803  0.00  0.00    +0.000 A 
ATOM      5  C   UNL     1       1.455   0.518   0.448  0.00  0.00    +0.000 A 
ATOM      6  C   UNL     1       0.955   0.198  -0.809  0.00  0.00    +0.000 A 
ENDROOT
BRANCH   4   7
ATOM      7  N   UNL     1       3.356   1.004   1.940  0.00  0.00    +0.000 N 
ATOM      8  O   UNL     1       4.574   0.927   2.121  0.00  0.00    +0.000 OA
ATOM      9  O   UNL     1       2.717   2.130   2.404  0.00  0.00    +0.000 OA
ENDBRANCH   4   7
BRANCH   1  11
ATOM     10  C   UNL     1       1.008  -2.611  -2.847  0.00  0.00    +0.000 C 
ATOM     11  O   UNL     1       1.167  -1.203  -2.716  0.00  0.00    +0.000 OA
ENDBRANCH   1  11
BRANCH   3  12
ATOM     12  O   UNL     1       4.702  -1.029   0.548  0.00  0.00    +0.000 OA
ATOM     13  C   UNL     1       4.736  -2.404   0.831  0.00  0.00    +0.000 C 
ENDBRANCH   3  12
BRANCH   6  14
ATOM     14  C   UNL     1       0.102   1.127  -1.564  0.00  0.00    +0.000 C 
ATOM     15  C   UNL     1      -1.017   1.621  -1.036  0.00  0.00    +0.000 C 
BRANCH  15  16
ATOM     16  C   UNL     1      -1.797   0.660  -0.245  0.00  0.00    +0.000 A 
ATOM     17  C   UNL     1      -1.936   0.876   1.109  0.00  0.00    +0.000 A 
ATOM     18  C   UNL     1      -2.742   0.020   1.814  0.00  0.00    +0.000 A 
ATOM     19  C   UNL     1      -3.706  -0.758   1.207  0.00  0.00    +0.000 A 
ATOM     20  C   UNL     1      -3.728  -0.810  -0.174  0.00  0.00    +0.000 A 
ATOM     21  C   UNL     1      -2.740  -0.137  -0.882  0.00  0.00    +0.000 A 
ATOM     22  O   UNL     1      -4.635  -1.822  -0.474  0.00  0.00    +0.000 OA
ATOM     23  C   UNL     1      -5.469  -2.082   0.651  0.00  0.00    +0.000 C 
ATOM     24  O   UNL     1      -4.861  -1.361   1.711  0.00  0.00    +0.000 OA
ENDBRANCH  15  16
BRANCH  15  25
ATOM     25  C   UNL     1      -1.439   2.980  -1.235  0.00  0.00    +0.000 C 
ATOM     26  N   UNL     1      -1.674   4.103  -1.019  0.00  0.00    +0.000 NA
ENDBRANCH  15  25
ENDBRANCH   6  14
TORSDOF 6
