REMARK  Name = 
REMARK  5 active torsions:
REMARK  status: ('A' for Active; 'I' for Inactive)
REMARK    1  A    between atoms: O_2  and  C_3
REMARK    2  A    between atoms: C_5  and  O_6
REMARK    3  A    between atoms: C_8  and  C_9
REMARK    4  A    between atoms: C_10  and  C_11
REMARK    5  A    between atoms: C_10  and  C_13
REMARK                            x       y       z     vdW  Elec       q    Type
REMARK                         _______ _______ _______ _____ _____    ______ ____
ROOT
ATOM      1  C   UNL     1      -0.115   1.880  -0.146  0.00  0.00    +0.000 C 
ATOM      2  C   UNL     1       0.739   1.908   0.880  0.00  0.00    +0.000 C 
ENDROOT
BRANCH   2   3
ATOM      3  C   UNL     1       1.703   0.828   0.881  0.00  0.00    +0.000 A 
ATOM      4  C   UNL     1       3.043   1.189   0.800  0.00  0.00    +0.000 A 
ATOM      5  C   UNL     1       3.973   0.247   0.417  0.00  0.00    +0.000 A 
ATOM      6  C   UNL     1       3.569  -1.033   0.055  0.00  0.00    +0.000 A 
ATOM      7  C   UNL     1       2.266  -1.458   0.281  0.00  0.00    +0.000 A 
ATOM      8  C   UNL     1       1.421  -0.505   0.839  0.00  0.00    +0.000 A 
ATOM      9  O   UNL     1       2.076  -2.513  -0.620  0.00  0.00    +0.000 OA
ATOM     10  C   UNL     1       3.337  -2.953  -1.092  0.00  0.00    +0.000 C 
ATOM     11  O   UNL     1       4.168  -1.834  -0.923  0.00  0.00    +0.000 OA
ENDBRANCH   2   3
BRANCH   1  15
ATOM     12  C   UNL     1      -3.040  -1.008  -0.903  0.00  0.00    +0.000 A 
ATOM     13  C   UNL     1      -3.084  -0.270   0.273  0.00  0.00    +0.000 A 
ATOM     14  C   UNL     1      -2.188   0.787   0.387  0.00  0.00    +0.000 A 
ATOM     15  C   UNL     1      -0.934   0.660  -0.205  0.00  0.00    +0.000 A 
ATOM     16  C   UNL     1      -0.924  -0.015  -1.423  0.00  0.00    +0.000 A 
ATOM     17  C   UNL     1      -1.814  -1.074  -1.551  0.00  0.00    +0.000 A 
ATOM     18 BR   UNL     1      -1.402  -2.442  -2.816  0.00  0.00    +0.000 Br
BRANCH  12  20
ATOM     19  C   UNL     1      -5.297  -1.817  -0.656  0.00  0.00    +0.000 C 
ATOM     20  O   UNL     1      -4.068  -1.814  -1.338  0.00  0.00    +0.000 OA
ENDBRANCH  12  20
BRANCH  14  21
ATOM     21  O   UNL     1      -2.583   1.968   1.026  0.00  0.00    +0.000 OA
ATOM     22  C   UNL     1      -3.298   1.987   2.233  0.00  0.00    +0.000 C 
ENDBRANCH  14  21
ENDBRANCH   1  15
BRANCH   2  23
ATOM     23  C   UNL     1       1.098   3.180   1.468  0.00  0.00    +0.000 C 
ATOM     24  N   UNL     1       1.352   4.103   2.134  0.00  0.00    +0.000 NA
ENDBRANCH   2  23
TORSDOF 5
