REMARK  Name = 
REMARK  5 active torsions:
REMARK  status: ('A' for Active; 'I' for Inactive)
REMARK    1  A    between atoms: O_2  and  C_3
REMARK    2  A    between atoms: C_6  and  C_7
REMARK    3  A    between atoms: C_11  and  O_12
REMARK    4  A    between atoms: C_14  and  O_15
REMARK    5  A    between atoms: C_23  and  O_24
REMARK                            x       y       z     vdW  Elec       q    Type
REMARK                         _______ _______ _______ _____ _____    ______ ____
ROOT
ATOM      1  C   UNL     1      -0.670  -0.869  -0.211  0.00  0.00    +0.000 C 
ATOM      2  C   UNL     1       0.064   0.235  -0.359  0.00  0.00    +0.000 C 
ATOM      3  C   UNL     1       1.522   0.121  -0.497  0.00  0.00    +0.000 A 
ATOM      4  C   UNL     1       2.194  -1.070  -0.251  0.00  0.00    +0.000 A 
ATOM      5  C   UNL     1       3.538  -1.012   0.099  0.00  0.00    +0.000 A 
ATOM      6  C   UNL     1       4.212   0.190   0.213  0.00  0.00    +0.000 A 
ATOM      7  C   UNL     1       3.514   1.371   0.116  0.00  0.00    +0.000 A 
ATOM      8  C   UNL     1       2.223   1.314  -0.374  0.00  0.00    +0.000 A 
ATOM      9  C   UNL     1       1.587   2.619  -0.713  0.00  0.00    +0.000 C 
ATOM     10  O   UNL     1       0.228   2.669  -0.369  0.00  0.00    +0.000 OA
ATOM     11  C   UNL     1      -0.555   1.545  -0.119  0.00  0.00    +0.000 C 
ATOM     12  O   UNL     1      -1.560   1.595   0.654  0.00  0.00    +0.000 OA
ENDROOT
BRANCH   1  16
ATOM     13  C   UNL     1      -4.743   0.003  -0.116  0.00  0.00    +0.000 A 
ATOM     14  C   UNL     1      -4.137   0.001  -1.367  0.00  0.00    +0.000 A 
ATOM     15  C   UNL     1      -2.784  -0.313  -1.425  0.00  0.00    +0.000 A 
ATOM     16  C   UNL     1      -2.124  -0.664  -0.252  0.00  0.00    +0.000 A 
ATOM     17  C   UNL     1      -2.898  -1.289   0.713  0.00  0.00    +0.000 A 
ATOM     18  C   UNL     1      -4.229  -0.905   0.797  0.00  0.00    +0.000 A 
BRANCH  13  20
ATOM     19  C   UNL     1      -5.569   2.207   0.270  0.00  0.00    +0.000 C 
ATOM     20  O   UNL     1      -5.846   0.812   0.175  0.00  0.00    +0.000 OA
ENDBRANCH  13  20
BRANCH  17  21
ATOM     21  O   UNL     1      -2.439  -2.372   1.462  0.00  0.00    +0.000 OA
ATOM     22  C   UNL     1      -1.649  -2.235   2.617  0.00  0.00    +0.000 C 
ENDBRANCH  17  21
ENDBRANCH   1  16
BRANCH   5  23
ATOM     23  O   UNL     1       4.323  -2.163   0.072  0.00  0.00    +0.000 OA
ATOM     24  C   UNL     1       3.872  -3.390   0.600  0.00  0.00    +0.000 C 
ENDBRANCH   5  23
BRANCH   6  25
ATOM     25  O   UNL     1       5.588   0.208   0.371  0.00  0.00    +0.000 OA
ATOM     26  C   UNL     1       6.338   1.391   0.185  0.00  0.00    +0.000 C 
ENDBRANCH   6  25
TORSDOF 5
