REMARK  Name = 
REMARK  4 active torsions:
REMARK  status: ('A' for Active; 'I' for Inactive)
REMARK    1  A    between atoms: O_2  and  C_3
REMARK    2  A    between atoms: C_8  and  O_9
REMARK    3  A    between atoms: C_21  and  O_22
REMARK    4  A    between atoms: C_28  and  N_29
REMARK                            x       y       z     vdW  Elec       q    Type
REMARK                         _______ _______ _______ _____ _____    ______ ____
ROOT
ATOM      1  C   UNL     1       4.070   1.745   0.603  0.00  0.00    +0.000 A 
ATOM      2  C   UNL     1       3.027   2.314   1.315  0.00  0.00    +0.000 A 
ATOM      3  C   UNL     1       1.819   1.643   1.429  0.00  0.00    +0.000 A 
ATOM      4  C   UNL     1       1.614   0.600   0.578  0.00  0.00    +0.000 A 
ATOM      5  C   UNL     1       2.556   0.097  -0.294  0.00  0.00    +0.000 A 
ATOM      6  C   UNL     1       3.822   0.650  -0.214  0.00  0.00    +0.000 A 
ATOM      7  C   UNL     1       1.951  -0.991  -1.073  0.00  0.00    +0.000 C 
ATOM      8  O   UNL     1       2.619  -1.924  -1.566  0.00  0.00    +0.000 OA
ATOM      9  N   UNL     1       0.541  -0.795  -0.962  0.00  0.00    +0.000 N 
ATOM     10  C   UNL     1       0.407  -0.195   0.341  0.00  0.00    +0.000 C 
ATOM     11  C   UNL     1      -0.671  -0.084   1.121  0.00  0.00    +0.000 C 
ATOM     12  C   UNL     1      -2.018  -0.446   0.652  0.00  0.00    +0.000 A 
ATOM     13  C   UNL     1      -2.459  -0.844  -0.606  0.00  0.00    +0.000 A 
ATOM     14  C   UNL     1      -3.658  -0.334  -1.089  0.00  0.00    +0.000 A 
ATOM     15  C   UNL     1      -4.437   0.559  -0.363  0.00  0.00    +0.000 A 
ATOM     16  C   UNL     1      -4.197   0.578   1.005  0.00  0.00    +0.000 A 
ATOM     17  C   UNL     1      -3.004   0.056   1.491  0.00  0.00    +0.000 A 
ATOM     18  O   UNL     1      -5.065   1.550   1.512  0.00  0.00    +0.000 OA
ATOM     19  C   UNL     1      -5.407   2.477   0.485  0.00  0.00    +0.000 C 
ATOM     20  O   UNL     1      -5.180   1.703  -0.673  0.00  0.00    +0.000 OA
ATOM     21  C   UNL     1      -1.626  -1.192  -1.800  0.00  0.00    +0.000 C 
ATOM     22  C   UNL     1      -0.376  -2.098  -1.155  0.00  0.00    +0.000 C 
ENDROOT
BRANCH  22  23
ATOM     23  N   UNL     1       0.251  -2.397  -2.600  0.00  0.00    +0.000 NA
ATOM     24  C   UNL     1      -0.452  -3.525  -3.101  0.00  0.00    +0.000 C 
ATOM     25  C   UNL     1       0.171  -1.196  -3.330  0.00  0.00    +0.000 C 
ENDBRANCH  22  23
BRANCH   1  27
ATOM     26  C   UNL     1       6.015   2.104   1.827  0.00  0.00    +0.000 C 
ATOM     27  O   UNL     1       5.318   2.306   0.748  0.00  0.00    +0.000 OA
ENDBRANCH   1  27
BRANCH   6  28
ATOM     28  O   UNL     1       4.899  -0.077  -0.684  0.00  0.00    +0.000 OA
ATOM     29  C   UNL     1       5.226  -1.294  -0.021  0.00  0.00    +0.000 C 
ENDBRANCH   6  28
BRANCH  17  30
ATOM     30  O   UNL     1      -2.711   0.087   2.837  0.00  0.00    +0.000 OA
ATOM     31  C   UNL     1      -3.047  -1.077   3.587  0.00  0.00    +0.000 C 
ENDBRANCH  17  30
TORSDOF 4
