REMARK  Name = 
REMARK  4 active torsions:
REMARK  status: ('A' for Active; 'I' for Inactive)
REMARK    1  A    between atoms: O_2  and  C_3
REMARK    2  A    between atoms: C_8  and  O_9
REMARK    3  A    between atoms: C_21  and  O_22
REMARK    4  A    between atoms: C_28  and  N_29
REMARK                            x       y       z     vdW  Elec       q    Type
REMARK                         _______ _______ _______ _____ _____    ______ ____
ROOT
ATOM      1  C   UNL     1      -4.172   1.816   0.539  0.00  0.00    +0.000 A 
ATOM      2  C   UNL     1      -3.137   2.737   0.575  0.00  0.00    +0.000 A 
ATOM      3  C   UNL     1      -1.891   2.298   0.215  0.00  0.00    +0.000 A 
ATOM      4  C   UNL     1      -1.661   0.930   0.124  0.00  0.00    +0.000 A 
ATOM      5  C   UNL     1      -2.688   0.015   0.043  0.00  0.00    +0.000 A 
ATOM      6  C   UNL     1      -3.966   0.484   0.244  0.00  0.00    +0.000 A 
ATOM      7  C   UNL     1      -2.075  -1.293  -0.085  0.00  0.00    +0.000 C 
ATOM      8  O   UNL     1      -2.709  -2.300  -0.449  0.00  0.00    +0.000 OA
ATOM      9  N   UNL     1      -0.684  -1.111  -0.297  0.00  0.00    +0.000 N 
ATOM     10  C   UNL     1      -0.410   0.174   0.286  0.00  0.00    +0.000 C 
ATOM     11  C   UNL     1       0.747   0.717   0.671  0.00  0.00    +0.000 C 
ATOM     12  C   UNL     1       2.087   0.216   0.353  0.00  0.00    +0.000 A 
ATOM     13  C   UNL     1       2.369  -1.040  -0.167  0.00  0.00    +0.000 A 
ATOM     14  C   UNL     1       3.702  -1.265  -0.462  0.00  0.00    +0.000 A 
ATOM     15  C   UNL     1       4.687  -0.348  -0.175  0.00  0.00    +0.000 A 
ATOM     16  C   UNL     1       4.327   0.945   0.181  0.00  0.00    +0.000 A 
ATOM     17  C   UNL     1       2.994   1.250   0.364  0.00  0.00    +0.000 A 
ATOM     18  O   UNL     1       5.436   1.670   0.559  0.00  0.00    +0.000 OA
ATOM     19  C   UNL     1       6.587   0.903   0.230  0.00  0.00    +0.000 C 
ATOM     20  O   UNL     1       6.070  -0.282  -0.367  0.00  0.00    +0.000 OA
ATOM     21  C   UNL     1       1.422  -1.885  -0.956  0.00  0.00    +0.000 C 
ATOM     22  C   UNL     1       0.265  -2.315   0.177  0.00  0.00    +0.000 C 
ENDROOT
BRANCH  22  23
ATOM     23  N   UNL     1      -0.462  -3.359  -0.799  0.00  0.00    +0.000 NA
ATOM     24  C   UNL     1      -0.640  -4.420   0.204  0.00  0.00    +0.000 C 
ATOM     25  C   UNL     1       0.538  -3.897  -1.663  0.00  0.00    +0.000 C 
ENDBRANCH  22  23
BRANCH   1  27
ATOM     26  C   UNL     1      -5.833   2.817   0.621  0.00  0.00    +0.000 C 
ATOM     27  O   UNL     1      -5.467   2.329   0.606  0.00  0.00    +0.000 OA
ENDBRANCH   1  27
BRANCH   6  28
ATOM     28  O   UNL     1      -5.008  -0.409   0.112  0.00  0.00    +0.000 OA
ATOM     29  C   UNL     1      -5.268  -1.332   1.164  0.00  0.00    +0.000 C 
ENDBRANCH   6  28
BRANCH  17  30
ATOM     30  O   UNL     1       2.607   2.586   0.220  0.00  0.00    +0.000 OA
ATOM     31  C   UNL     1       2.234   3.369   1.316  0.00  0.00    +0.000 C 
ENDBRANCH  17  30
TORSDOF 4
