REMARK  Name = 
REMARK  5 active torsions:
REMARK  status: ('A' for Active; 'I' for Inactive)
REMARK    1  A    between atoms: O_2  and  C_3
REMARK    2  A    between atoms: C_6  and  C_7
REMARK    3  A    between atoms: C_11  and  O_12
REMARK    4  A    between atoms: C_14  and  O_15
REMARK    5  A    between atoms: C_23  and  O_24
REMARK                            x       y       z     vdW  Elec       q    Type
REMARK                         _______ _______ _______ _____ _____    ______ ____
ROOT
ATOM      1  C   UNL     1       1.032   1.463  -0.726  0.00  0.00    +0.000 C 
ATOM      2  C   UNL     1      -0.202   1.912  -0.691  0.00  0.00    +0.000 C 
ATOM      3  C   UNL     1      -1.291   0.930  -0.716  0.00  0.00    +0.000 A 
ATOM      4  C   UNL     1      -0.967  -0.417  -0.778  0.00  0.00    +0.000 A 
ATOM      5  C   UNL     1      -2.023  -1.293  -0.561  0.00  0.00    +0.000 A 
ATOM      6  C   UNL     1      -3.122  -0.877   0.182  0.00  0.00    +0.000 A 
ATOM      7  C   UNL     1      -3.461   0.464   0.205  0.00  0.00    +0.000 A 
ATOM      8  C   UNL     1      -2.521   1.375  -0.255  0.00  0.00    +0.000 A 
ATOM      9  C   UNL     1      -2.886   2.778  -0.616  0.00  0.00    +0.000 C 
ATOM     10  O   UNL     1      -1.836   3.683  -0.329  0.00  0.00    +0.000 OA
ATOM     11  C   UNL     1      -0.565   3.318  -0.781  0.00  0.00    +0.000 C 
ATOM     12  O   UNL     1       0.379   4.152  -0.646  0.00  0.00    +0.000 OA
ENDROOT
BRANCH   1  16
ATOM     13  C   UNL     1       3.298  -1.357   1.269  0.00  0.00    +0.000 A 
ATOM     14  C   UNL     1       2.247  -0.748   1.942  0.00  0.00    +0.000 A 
ATOM     15  C   UNL     1       1.529   0.218   1.262  0.00  0.00    +0.000 A 
ATOM     16  C   UNL     1       1.370   0.167  -0.119  0.00  0.00    +0.000 A 
ATOM     17  C   UNL     1       2.323  -0.573  -0.811  0.00  0.00    +0.000 A 
ATOM     18  C   UNL     1       3.161  -1.434  -0.112  0.00  0.00    +0.000 A 
BRANCH  13  20
ATOM     19  C   UNL     1       4.768  -2.728   2.702  0.00  0.00    +0.000 C 
ATOM     20  O   UNL     1       4.527  -1.611   1.887  0.00  0.00    +0.000 OA
ENDBRANCH  13  20
BRANCH  17  21
ATOM     21  O   UNL     1       2.585  -0.275  -2.152  0.00  0.00    +0.000 OA
ATOM     22  C   UNL     1       3.903   0.131  -2.492  0.00  0.00    +0.000 C 
ENDBRANCH  17  21
ENDBRANCH   1  16
BRANCH   5  23
ATOM     23  O   UNL     1      -1.978  -2.626  -0.906  0.00  0.00    +0.000 OA
ATOM     24  C   UNL     1      -1.950  -3.576   0.135  0.00  0.00    +0.000 C 
ENDBRANCH   5  23
BRANCH   6  25
ATOM     25  O   UNL     1      -3.898  -1.735   0.929  0.00  0.00    +0.000 OA
ATOM     26  C   UNL     1      -4.421  -1.342   2.180  0.00  0.00    +0.000 C 
ENDBRANCH   6  25
TORSDOF 5
