REMARK  Name = 
REMARK  5 active torsions:
REMARK  status: ('A' for Active; 'I' for Inactive)
REMARK    1  A    between atoms: O_2  and  C_3
REMARK    2  A    between atoms: C_5  and  C_6
REMARK    3  A    between atoms: C_7  and  C_8
REMARK    4  A    between atoms: C_11  and  O_12
REMARK    5  A    between atoms: C_17  and  O_18
REMARK                            x       y       z     vdW  Elec       q    Type
REMARK                         _______ _______ _______ _____ _____    ______ ____
ROOT
ATOM      1  C   UNL     1      -2.754   1.178  -1.199  0.00  0.00    +0.000 A 
ATOM      2  C   UNL     1      -1.714   0.365  -1.632  0.00  0.00    +0.000 A 
ATOM      3  C   UNL     1      -1.240  -0.639  -0.797  0.00  0.00    +0.000 A 
ATOM      4  C   UNL     1      -1.778  -0.773   0.477  0.00  0.00    +0.000 A 
ATOM      5  C   UNL     1      -2.690   0.129   0.964  0.00  0.00    +0.000 A 
ATOM      6  C   UNL     1      -3.103   1.137   0.133  0.00  0.00    +0.000 A 
ATOM      7  O   UNL     1      -3.795   2.065   0.903  0.00  0.00    +0.000 OA
ATOM      8  C   UNL     1      -3.571   1.784   2.274  0.00  0.00    +0.000 C 
ATOM      9  O   UNL     1      -3.124   0.435   2.233  0.00  0.00    +0.000 OA
ENDROOT
BRANCH   1  11
ATOM     10  C   UNL     1      -4.747   0.985  -2.607  0.00  0.00    +0.000 C 
ATOM     11  O   UNL     1      -3.676   1.736  -2.091  0.00  0.00    +0.000 OA
ENDBRANCH   1  11
BRANCH   3  12
ATOM     12  C   UNL     1      -0.043  -1.312  -1.245  0.00  0.00    +0.000 C 
ATOM     13  C   UNL     1       0.710  -2.110  -0.532  0.00  0.00    +0.000 C 
BRANCH  13  14
ATOM     14  C   UNL     1       2.149  -1.897  -0.320  0.00  0.00    +0.000 A 
ATOM     15  C   UNL     1       2.674  -1.866   0.967  0.00  0.00    +0.000 A 
ATOM     16  C   UNL     1       3.630  -0.925   1.324  0.00  0.00    +0.000 A 
ATOM     17  C   UNL     1       4.141  -0.035   0.392  0.00  0.00    +0.000 A 
ATOM     18  C   UNL     1       3.901  -0.334  -0.943  0.00  0.00    +0.000 A 
ATOM     19  O   UNL     1       4.379   0.569  -1.897  0.00  0.00    +0.000 OA
ATOM     20  C   UNL     1       2.935  -1.274  -1.283  0.00  0.00    +0.000 A 
BRANCH  17  21
ATOM     21  O   UNL     1       4.630   1.177   0.829  0.00  0.00    +0.000 OA
ATOM     22  C   UNL     1       4.864   2.288  -0.014  0.00  0.00    +0.000 C 
ENDBRANCH  17  21
ENDBRANCH  13  14
ENDBRANCH   3  12
BRANCH   4  23
ATOM     23  O   UNL     1      -1.027  -1.538   1.371  0.00  0.00    +0.000 OA
ATOM     24  C   UNL     1      -0.751  -1.144   2.692  0.00  0.00    +0.000 C 
ENDBRANCH   4  23
TORSDOF 5
