REMARK  Name = 
REMARK  2 active torsions:
REMARK  status: ('A' for Active; 'I' for Inactive)
REMARK    1  A    between atoms: C_5  and  C_6
REMARK    2  A    between atoms: C_7  and  C_8
REMARK                            x       y       z     vdW  Elec       q    Type
REMARK                         _______ _______ _______ _____ _____    ______ ____
ROOT
ATOM      1  C   UNL     1       0.361   0.642  -0.698  0.00  0.00    +0.000 C 
ATOM      2  C   UNL     1      -0.365  -0.413  -0.991  0.00  0.00    +0.000 C 
ENDROOT
BRANCH   1   7
ATOM      3  O   UNL     1       5.604  -0.149   1.193  0.00  0.00    +0.000 OA
ATOM      4  C   UNL     1       4.318   0.031   0.697  0.00  0.00    +0.000 A 
ATOM      5  C   UNL     1       3.297   0.353   1.577  0.00  0.00    +0.000 A 
ATOM      6  C   UNL     1       2.074   0.760   1.093  0.00  0.00    +0.000 A 
ATOM      7  C   UNL     1       1.731   0.601  -0.229  0.00  0.00    +0.000 A 
ATOM      8  C   UNL     1       2.728   0.191  -1.091  0.00  0.00    +0.000 A 
ATOM      9  O   UNL     1       2.414  -0.153  -2.400  0.00  0.00    +0.000 OA
ATOM     10  C   UNL     1       3.967  -0.219  -0.614  0.00  0.00    +0.000 A 
ENDBRANCH   1   7
BRANCH   2  11
ATOM     11  C   UNL     1      -1.793  -0.411  -0.658  0.00  0.00    +0.000 A 
ATOM     12  C   UNL     1      -2.610   0.676  -0.920  0.00  0.00    +0.000 A 
ATOM     13  C   UNL     1      -3.709   0.962  -0.122  0.00  0.00    +0.000 A 
ATOM     14  O   UNL     1      -4.093   2.269   0.181  0.00  0.00    +0.000 OA
ATOM     15  C   UNL     1      -4.162  -0.087   0.669  0.00  0.00    +0.000 A 
ATOM     16  C   UNL     1      -3.521  -1.297   0.684  0.00  0.00    +0.000 A 
ATOM     17  O   UNL     1      -3.930  -2.271   1.597  0.00  0.00    +0.000 OA
ATOM     18  C   UNL     1      -2.312  -1.485   0.031  0.00  0.00    +0.000 A 
ENDBRANCH   2  11
TORSDOF 2
