REMARK  Name = 
REMARK  6 active torsions:
REMARK  status: ('A' for Active; 'I' for Inactive)
REMARK    1  A    between atoms: O_2  and  C_3
REMARK    2  A    between atoms: C_8  and  O_9
REMARK    3  A    between atoms: C_12  and  C_13
REMARK    4  A    between atoms: C_15  and  O_16
REMARK    5  A    between atoms: C_18  and  O_19
REMARK    6  A    between atoms: C_22  and  O_23
REMARK                            x       y       z     vdW  Elec       q    Type
REMARK                         _______ _______ _______ _____ _____    ______ ____
ROOT
ATOM      1  C   UNL     1      -4.687   0.192  -0.313  0.00  0.00    +0.000 A 
ATOM      2  C   UNL     1      -3.962   0.332  -1.489  0.00  0.00    +0.000 A 
ATOM      3  C   UNL     1      -2.587   0.136  -1.441  0.00  0.00    +0.000 A 
ATOM      4  C   UNL     1      -2.000   0.005  -0.186  0.00  0.00    +0.000 A 
ATOM      5  C   UNL     1      -2.747  -0.372   0.923  0.00  0.00    +0.000 A 
ATOM      6  C   UNL     1      -4.116  -0.512   0.740  0.00  0.00    +0.000 A 
ATOM      7  C   UNL     1      -0.583   0.313  -0.396  0.00  0.00    +0.000 C 
ATOM      8  C   UNL     1       0.273   0.689   0.533  0.00  0.00    +0.000 C 
ATOM      9  C   UNL     1      -0.289   0.002  -1.793  0.00  0.00    +0.000 C 
ATOM     10  O   UNL     1       0.841  -0.330  -2.234  0.00  0.00    +0.000 OA
ATOM     11  N   UNL     1      -1.572  -0.093  -2.422  0.00  0.00    +0.000 NA
ENDROOT
BRANCH   8  12
ATOM     12  C   UNL     1       1.688   0.317   0.402  0.00  0.00    +0.000 A 
ATOM     13  C   UNL     1       2.606   1.168  -0.204  0.00  0.00    +0.000 A 
ATOM     14  C   UNL     1       3.956   0.863  -0.185  0.00  0.00    +0.000 A 
ATOM     15  C   UNL     1       4.388  -0.163   0.641  0.00  0.00    +0.000 A 
ATOM     16  C   UNL     1       3.459  -0.948   1.313  0.00  0.00    +0.000 A 
ATOM     17  C   UNL     1       2.191  -0.405   1.478  0.00  0.00    +0.000 A 
BRANCH  14  18
ATOM     18  O   UNL     1       4.936   1.755  -0.607  0.00  0.00    +0.000 OA
ATOM     19  C   UNL     1       6.087   2.007   0.195  0.00  0.00    +0.000 C 
ENDBRANCH  14  18
BRANCH  15  20
ATOM     20  O   UNL     1       5.607  -0.756   0.320  0.00  0.00    +0.000 OA
ATOM     21  C   UNL     1       5.664  -1.863  -0.555  0.00  0.00    +0.000 C 
ENDBRANCH  15  20
BRANCH  17  22
ATOM     22  O   UNL     1       1.425  -0.674   2.615  0.00  0.00    +0.000 OA
ATOM     23  C   UNL     1       1.604   0.172   3.736  0.00  0.00    +0.000 C 
ENDBRANCH  17  22
ENDBRANCH   8  12
BRANCH   1  25
ATOM     24  C   UNL     1      -6.364   1.672   0.580  0.00  0.00    +0.000 C 
ATOM     25  O   UNL     1      -6.028   0.549  -0.221  0.00  0.00    +0.000 OA
ENDBRANCH   1  25
BRANCH   6  26
ATOM     26  O   UNL     1      -4.897  -1.320   1.568  0.00  0.00    +0.000 OA
ATOM     27  C   UNL     1      -4.894  -2.737   1.474  0.00  0.00    +0.000 C 
ENDBRANCH   6  26
TORSDOF 6
