REMARK  Name = 
REMARK  8 active torsions:
REMARK  status: ('A' for Active; 'I' for Inactive)
REMARK    1  A    between atoms: C_2  and  C_3
REMARK    2  A    between atoms: C_5  and  O_6
REMARK    3  A    between atoms: O_6  and  C_7
REMARK    4  A    between atoms: C_10  and  C_11
REMARK    5  A    between atoms: C_12  and  C_13
REMARK    6  A    between atoms: C_18  and  O_19
REMARK    7  A    between atoms: O_19  and  C_20
REMARK    8  A    between atoms: C_22  and  C_23
REMARK                            x       y       z     vdW  Elec       q    Type
REMARK                         _______ _______ _______ _____ _____    ______ ____
ROOT
ATOM      1  C   UNL     1       0.468  -0.739  -0.771  0.00  0.00    +0.000 C 
ATOM      2  C   UNL     1      -0.816  -0.676  -0.565  0.00  0.00    +0.000 C 
ENDROOT
BRANCH   1   6
ATOM      3  C   UNL     1       3.935   0.805  -2.211  0.00  0.00    +0.000 A 
ATOM      4  C   UNL     1       3.173   0.107  -3.143  0.00  0.00    +0.000 A 
ATOM      5  C   UNL     1       1.896  -0.333  -2.793  0.00  0.00    +0.000 A 
ATOM      6  C   UNL     1       1.236   0.140  -1.663  0.00  0.00    +0.000 A 
ATOM      7  C   UNL     1       1.788   1.323  -1.182  0.00  0.00    +0.000 A 
ATOM      8  O   UNL     1       1.222   1.839  -0.031  0.00  0.00    +0.000 OA
ATOM      9  C   UNL     1       3.121   1.628  -1.439  0.00  0.00    +0.000 A 
BRANCH   3  10
ATOM     10  O   UNL     1       5.191   0.349  -1.780  0.00  0.00    +0.000 OA
BRANCH  10  13
ATOM     11  C   UNL     1       7.658   0.008  -0.013  0.00  0.00    +0.000 C 
ATOM     12  O   UNL     1       7.181   1.186  -0.781  0.00  0.00    +0.000 OA
ATOM     13  C   UNL     1       5.677   1.444  -0.718  0.00  0.00    +0.000 C 
ATOM     14  C   UNL     1       5.178   0.496   0.691  0.00  0.00    +0.000 C 
ATOM     15  O   UNL     1       6.366   0.935   1.552  0.00  0.00    +0.000 OA
ATOM     16  C   UNL     1       5.735  -1.119   0.435  0.00  0.00    +0.000 C 
ATOM     17  O   UNL     1       4.442  -1.523  -0.284  0.00  0.00    +0.000 OA
ATOM     18  C   UNL     1       6.600  -0.939  -1.035  0.00  0.00    +0.000 C 
ATOM     19  O   UNL     1       7.385  -2.201  -0.726  0.00  0.00    +0.000 OA
BRANCH  11  21
ATOM     20  O   UNL     1       9.474  -0.172  -0.668  0.00  0.00    +0.000 OA
ATOM     21  C   UNL     1       8.938  -0.209  -1.095  0.00  0.00    +0.000 C 
ENDBRANCH  11  21
ENDBRANCH  10  13
ENDBRANCH   3  10
ENDBRANCH   1   6
BRANCH   2  22
ATOM     22  C   UNL     1      -1.463  -0.429   0.716  0.00  0.00    +0.000 A 
ATOM     23  C   UNL     1      -1.289  -1.221   1.839  0.00  0.00    +0.000 A 
ATOM     24  C   UNL     1      -2.092  -1.085   2.966  0.00  0.00    +0.000 A 
ATOM     25  O   UNL     1      -2.100  -2.041   3.986  0.00  0.00    +0.000 OA
ATOM     26  C   UNL     1      -2.995  -0.031   2.925  0.00  0.00    +0.000 A 
ATOM     27  C   UNL     1      -3.384   0.565   1.744  0.00  0.00    +0.000 A 
ATOM     28  C   UNL     1      -2.518   0.477   0.695  0.00  0.00    +0.000 A 
BRANCH  27  29
ATOM     29  O   UNL     1      -4.622   1.191   1.719  0.00  0.00    +0.000 OA
BRANCH  29  30
ATOM     30  C   UNL     1      -5.274   0.840   0.311  0.00  0.00    +0.000 C 
ATOM     31  O   UNL     1      -6.670   1.329   0.752  0.00  0.00    +0.000 OA
ATOM     32  C   UNL     1      -6.892   0.676  -0.622  0.00  0.00    +0.000 C 
ATOM     33  C   UNL     1      -8.068  -0.314   0.165  0.00  0.00    +0.000 C 
ATOM     34  O   UNL     1      -7.904  -1.508  -0.767  0.00  0.00    +0.000 OA
ATOM     35  C   UNL     1      -7.051  -1.008   1.392  0.00  0.00    +0.000 C 
ATOM     36  O   UNL     1      -7.004   0.229   2.302  0.00  0.00    +0.000 OA
ATOM     37  C   UNL     1      -5.441  -0.853   0.773  0.00  0.00    +0.000 C 
ATOM     38  O   UNL     1      -5.740  -1.336  -0.645  0.00  0.00    +0.000 OA
BRANCH  32  39
ATOM     39  C   UNL     1      -8.066   1.813  -0.992  0.00  0.00    +0.000 C 
ATOM     40  O   UNL     1      -7.277   2.973  -1.039  0.00  0.00    +0.000 OA
ENDBRANCH  32  39
ENDBRANCH  29  30
ENDBRANCH  27  29
ENDBRANCH   2  22
TORSDOF 8
