REMARK  Name = 
REMARK  6 active torsions:
REMARK  status: ('A' for Active; 'I' for Inactive)
REMARK    1  A    between atoms: O_2  and  C_3
REMARK    2  A    between atoms: C_6  and  C_7
REMARK    3  A    between atoms: C_14  and  O_15
REMARK    4  A    between atoms: C_17  and  O_18
REMARK    5  A    between atoms: C_22  and  O_23
REMARK    6  A    between atoms: C_25  and  O_26
REMARK                            x       y       z     vdW  Elec       q    Type
REMARK                         _______ _______ _______ _____ _____    ______ ____
ROOT
ATOM      1  C   UNL     1      -0.539   1.001   1.464  0.00  0.00    +0.000 C 
ATOM      2  C   UNL     1       0.397   0.125   1.740  0.00  0.00    +0.000 C 
ATOM      3  C   UNL     1       0.772  -0.441   3.035  0.00  0.00    +0.000 C 
ATOM      4  O   UNL     1       0.048  -0.431   4.074  0.00  0.00    +0.000 OA
ATOM      5  N   UNL     1       1.922  -1.248   2.760  0.00  0.00    +0.000 NA
ATOM      6  C   UNL     1       2.384  -0.980   1.431  0.00  0.00    +0.000 A 
ATOM      7  C   UNL     1       3.602  -1.255   0.822  0.00  0.00    +0.000 A 
ATOM      8  C   UNL     1       3.890  -0.653  -0.388  0.00  0.00    +0.000 A 
ATOM      9  C   UNL     1       2.795  -0.276  -1.155  0.00  0.00    +0.000 A 
ATOM     10  C   UNL     1       1.578   0.061  -0.573  0.00  0.00    +0.000 A 
ATOM     11  C   UNL     1       1.379  -0.327   0.747  0.00  0.00    +0.000 A 
ENDROOT
BRANCH   1  15
ATOM     12  C   UNL     1      -3.676   1.256  -1.161  0.00  0.00    +0.000 A 
ATOM     13  C   UNL     1      -2.761   2.302  -1.117  0.00  0.00    +0.000 A 
ATOM     14  C   UNL     1      -1.545   2.147  -0.462  0.00  0.00    +0.000 A 
ATOM     15  C   UNL     1      -1.193   0.949   0.149  0.00  0.00    +0.000 A 
ATOM     16  C   UNL     1      -2.002  -0.140  -0.147  0.00  0.00    +0.000 A 
ATOM     17  C   UNL     1      -3.160  -0.007  -0.904  0.00  0.00    +0.000 A 
BRANCH  12  19
ATOM     18  C   UNL     1      -5.559   2.000   0.201  0.00  0.00    +0.000 C 
ATOM     19  O   UNL     1      -5.040   1.538  -1.045  0.00  0.00    +0.000 OA
ENDBRANCH  12  19
BRANCH  16  20
ATOM     20  O   UNL     1      -1.629  -1.394   0.332  0.00  0.00    +0.000 OA
ATOM     21  C   UNL     1      -1.591  -2.538  -0.512  0.00  0.00    +0.000 C 
ENDBRANCH  16  20
BRANCH  17  22
ATOM     22  O   UNL     1      -4.078  -1.062  -0.940  0.00  0.00    +0.000 OA
ATOM     23  C   UNL     1      -4.634  -1.428   0.320  0.00  0.00    +0.000 C 
ENDBRANCH  17  22
ENDBRANCH   1  15
BRANCH   8  24
ATOM     24  O   UNL     1       5.162  -0.194  -0.720  0.00  0.00    +0.000 OA
ATOM     25  C   UNL     1       6.101   0.260   0.223  0.00  0.00    +0.000 C 
ENDBRANCH   8  24
BRANCH   9  26
ATOM     26  O   UNL     1       3.038   0.179  -2.451  0.00  0.00    +0.000 OA
ATOM     27  C   UNL     1       4.340   0.558  -2.851  0.00  0.00    +0.000 C 
ENDBRANCH   9  26
TORSDOF 6
