REMARK  Name = 
REMARK  4 active torsions:
REMARK  status: ('A' for Active; 'I' for Inactive)
REMARK    1  A    between atoms: O_2  and  C_3
REMARK    2  A    between atoms: C_8  and  C_9
REMARK    3  A    between atoms: C_17  and  O_18
REMARK    4  A    between atoms: C_20  and  O_21
REMARK                            x       y       z     vdW  Elec       q    Type
REMARK                         _______ _______ _______ _____ _____    ______ ____
ROOT
ATOM      1  C   UNL     1      -0.483  -1.013   0.552  0.00  0.00    +0.000 C 
ATOM      2  C   UNL     1       0.261  -0.713  -0.505  0.00  0.00    +0.000 C 
ATOM      3  C   UNL     1      -0.432  -0.269  -1.719  0.00  0.00    +0.000 C 
ATOM      4  O   UNL     1      -1.690  -0.282  -1.735  0.00  0.00    +0.000 OA
ATOM      5  O   UNL     1       0.328   0.474  -2.625  0.00  0.00    +0.000 OA
ATOM      6  C   UNL     1       1.491   1.174  -2.257  0.00  0.00    +0.000 C 
ATOM      7  C   UNL     1       2.348   0.399  -1.313  0.00  0.00    +0.000 A 
ATOM      8  C   UNL     1       3.471   1.074  -0.849  0.00  0.00    +0.000 A 
ATOM      9  C   UNL     1       4.098   0.561   0.279  0.00  0.00    +0.000 A 
ATOM     10  C   UNL     1       3.717  -0.679   0.773  0.00  0.00    +0.000 A 
ATOM     11  C   UNL     1       2.373  -1.006   0.634  0.00  0.00    +0.000 A 
ATOM     12  C   UNL     1       1.690  -0.468  -0.448  0.00  0.00    +0.000 A 
ENDROOT
BRANCH   1  18
ATOM     13  C   UNL     1      -2.927  -1.263   1.010  0.00  0.00    +0.000 A 
ATOM     14  C   UNL     1      -4.122  -0.671   1.403  0.00  0.00    +0.000 A 
ATOM     15  C   UNL     1      -4.268   0.704   1.296  0.00  0.00    +0.000 A 
ATOM     16  C   UNL     1      -3.122   1.464   1.323  0.00  0.00    +0.000 A 
ATOM     17  C   UNL     1      -1.911   0.847   1.166  0.00  0.00    +0.000 A 
ATOM     18  C   UNL     1      -1.836  -0.474   0.743  0.00  0.00    +0.000 A 
ATOM     19  O   UNL     1      -3.457   2.805   1.259  0.00  0.00    +0.000 OA
ATOM     20  C   UNL     1      -4.846   2.876   0.947  0.00  0.00    +0.000 C 
ATOM     21  O   UNL     1      -5.346   1.557   1.109  0.00  0.00    +0.000 OA
BRANCH  13  23
ATOM     22  C   UNL     1      -2.487  -3.640   1.486  0.00  0.00    +0.000 C 
ATOM     23  O   UNL     1      -2.868  -2.589   0.611  0.00  0.00    +0.000 OA
ENDBRANCH  13  23
ENDBRANCH   1  18
BRANCH   9  24
ATOM     24  O   UNL     1       5.292   1.079   0.768  0.00  0.00    +0.000 OA
ATOM     25  C   UNL     1       5.317   2.376   1.303  0.00  0.00    +0.000 C 
ENDBRANCH   9  24
BRANCH  10  26
ATOM     26  O   UNL     1       4.611  -1.507   1.455  0.00  0.00    +0.000 OA
ATOM     27  C   UNL     1       4.801  -2.816   0.922  0.00  0.00    +0.000 C 
ENDBRANCH  10  26
TORSDOF 4
