REMARK  Name = 
REMARK  5 active torsions:
REMARK  status: ('A' for Active; 'I' for Inactive)
REMARK    1  A    between atoms: O_2  and  C_3
REMARK    2  A    between atoms: C_5  and  C_6
REMARK    3  A    between atoms: C_7  and  C_8
REMARK    4  A    between atoms: C_13  and  O_14
REMARK    5  A    between atoms: C_17  and  O_18
REMARK                            x       y       z     vdW  Elec       q    Type
REMARK                         _______ _______ _______ _____ _____    ______ ____
ROOT
ATOM      1  C   UNL     1      -2.620   1.071  -0.914  0.00  0.00    +0.000 A 
ATOM      2  C   UNL     1      -1.397   0.932  -0.274  0.00  0.00    +0.000 A 
ATOM      3  C   UNL     1      -1.236  -0.071   0.674  0.00  0.00    +0.000 A 
ATOM      4  C   UNL     1      -2.132  -1.129   0.763  0.00  0.00    +0.000 A 
ATOM      5  C   UNL     1      -3.171  -1.135  -0.158  0.00  0.00    +0.000 A 
ATOM      6  C   UNL     1      -3.380  -0.086  -1.040  0.00  0.00    +0.000 A 
ATOM      7  O   UNL     1      -4.464  -0.364  -1.843  0.00  0.00    +0.000 OA
ATOM      8  C   UNL     1      -4.803  -1.722  -1.588  0.00  0.00    +0.000 C 
ATOM      9  O   UNL     1      -4.197  -2.048  -0.341  0.00  0.00    +0.000 OA
ENDROOT
BRANCH   1  11
ATOM     10  C   UNL     1      -4.034   2.915  -0.229  0.00  0.00    +0.000 C 
ATOM     11  O   UNL     1      -3.162   2.329  -1.193  0.00  0.00    +0.000 OA
ENDBRANCH   1  11
BRANCH   3  12
ATOM     12  C   UNL     1       0.096  -0.257   1.263  0.00  0.00    +0.000 C 
ATOM     13  C   UNL     1       1.059  -0.579   0.420  0.00  0.00    +0.000 C 
BRANCH  13  14
ATOM     14  C   UNL     1       2.483  -0.526   0.778  0.00  0.00    +0.000 A 
ATOM     15  C   UNL     1       3.280  -1.625   0.483  0.00  0.00    +0.000 A 
ATOM     16  C   UNL     1       4.550  -1.489  -0.064  0.00  0.00    +0.000 A 
ATOM     17  C   UNL     1       5.094  -0.223  -0.249  0.00  0.00    +0.000 A 
ATOM     18  O   UNL     1       5.875   0.030  -1.374  0.00  0.00    +0.000 OA
ATOM     19  C   UNL     1       4.447   0.820   0.404  0.00  0.00    +0.000 A 
ATOM     20  C   UNL     1       3.160   0.680   0.908  0.00  0.00    +0.000 A 
BRANCH  19  21
ATOM     21  O   UNL     1       5.006   2.084   0.193  0.00  0.00    +0.000 OA
ATOM     22  C   UNL     1       4.132   3.191   0.000  0.00  0.00    +0.000 C 
ENDBRANCH  19  21
ENDBRANCH  13  14
ENDBRANCH   3  12
BRANCH   4  23
ATOM     23  O   UNL     1      -2.220  -1.777   1.988  0.00  0.00    +0.000 OA
ATOM     24  C   UNL     1      -2.366  -1.022   3.189  0.00  0.00    +0.000 C 
ENDBRANCH   4  23
TORSDOF 5
