REMARK  Name = 
REMARK  7 active torsions:
REMARK  status: ('A' for Active; 'I' for Inactive)
REMARK    1  A    between atoms: O_2  and  C_3
REMARK    2  A    between atoms: C_6  and  C_7
REMARK    3  A    between atoms: C_8  and  C_9
REMARK    4  A    between atoms: C_11  and  O_12
REMARK    5  A    between atoms: C_14  and  O_15
REMARK    6  A    between atoms: C_17  and  O_18
REMARK    7  A    between atoms: C_20  and  O_21
REMARK                            x       y       z     vdW  Elec       q    Type
REMARK                         _______ _______ _______ _____ _____    ______ ____
ROOT
ATOM      1  C   UNL     1      -0.920  -0.633  -0.218  0.00  0.00    +0.000 A 
ATOM      2  C   UNL     1      -0.794   0.743  -0.063  0.00  0.00    +0.000 A 
ATOM      3  C   UNL     1      -1.753   1.526   0.524  0.00  0.00    +0.000 A 
ATOM      4  C   UNL     1      -3.063   1.086   0.392  0.00  0.00    +0.000 A 
ATOM      5  C   UNL     1      -3.229  -0.291   0.461  0.00  0.00    +0.000 A 
ATOM      6  C   UNL     1      -2.174  -1.129   0.126  0.00  0.00    +0.000 A 
ENDROOT
BRANCH   1   8
ATOM      7  C   UNL     1       1.006  -0.833  -1.560  0.00  0.00    +0.000 C 
ATOM      8  C   UNL     1      -0.194  -1.345  -1.279  0.00  0.00    +0.000 C 
BRANCH   7  12
ATOM      9  C   UNL     1       4.608  -0.372   0.353  0.00  0.00    +0.000 A 
ATOM     10  C   UNL     1       4.137  -1.650   0.110  0.00  0.00    +0.000 A 
ATOM     11  C   UNL     1       2.826  -1.844  -0.311  0.00  0.00    +0.000 A 
ATOM     12  C   UNL     1       1.923  -0.791  -0.411  0.00  0.00    +0.000 A 
ATOM     13  C   UNL     1       2.462   0.459  -0.125  0.00  0.00    +0.000 A 
ATOM     14  C   UNL     1       3.650   0.609   0.561  0.00  0.00    +0.000 A 
ATOM     15  O   UNL     1       3.899   1.687   1.409  0.00  0.00    +0.000 OA
BRANCH   9  17
ATOM     16  C   UNL     1       6.535   0.950  -0.289  0.00  0.00    +0.000 C 
ATOM     17  O   UNL     1       5.939  -0.059   0.519  0.00  0.00    +0.000 OA
ENDBRANCH   9  17
ENDBRANCH   7  12
ENDBRANCH   1   8
BRANCH   3  18
ATOM     18  O   UNL     1      -1.523   2.837   0.944  0.00  0.00    +0.000 OA
ATOM     19  C   UNL     1      -0.643   3.673   0.197  0.00  0.00    +0.000 C 
ENDBRANCH   3  18
BRANCH   4  20
ATOM     20  O   UNL     1      -4.148   1.966   0.416  0.00  0.00    +0.000 OA
ATOM     21  C   UNL     1      -5.100   1.763  -0.627  0.00  0.00    +0.000 C 
ENDBRANCH   4  20
BRANCH   5  22
ATOM     22  O   UNL     1      -4.555  -0.735   0.482  0.00  0.00    +0.000 OA
ATOM     23  C   UNL     1      -4.907  -1.689  -0.507  0.00  0.00    +0.000 C 
ENDBRANCH   5  22
BRANCH   6  24
ATOM     24  O   UNL     1      -2.430  -2.501   0.079  0.00  0.00    +0.000 OA
ATOM     25  C   UNL     1      -1.551  -3.426  -0.512  0.00  0.00    +0.000 C 
ENDBRANCH   6  24
TORSDOF 7
