REMARK  Name = 
REMARK  5 active torsions:
REMARK  status: ('A' for Active; 'I' for Inactive)
REMARK    1  A    between atoms: O_2  and  C_3
REMARK    2  A    between atoms: C_6  and  C_7
REMARK    3  A    between atoms: C_8  and  C_9
REMARK    4  A    between atoms: C_13  and  O_14
REMARK    5  A    between atoms: C_16  and  O_17
REMARK                            x       y       z     vdW  Elec       q    Type
REMARK                         _______ _______ _______ _____ _____    ______ ____
ROOT
ATOM      1  C   UNL     1      -0.751   0.787   0.360  0.00  0.00    +0.000 A 
ATOM      2  C   UNL     1      -0.976  -0.580   0.261  0.00  0.00    +0.000 A 
ATOM      3  C   UNL     1      -2.213  -1.109  -0.052  0.00  0.00    +0.000 A 
ATOM      4  C   UNL     1      -3.037  -0.301  -0.825  0.00  0.00    +0.000 A 
ATOM      5  C   UNL     1      -2.775   1.062  -0.898  0.00  0.00    +0.000 A 
ATOM      6  C   UNL     1      -1.798   1.596  -0.067  0.00  0.00    +0.000 A 
ATOM      7  O   UNL     1      -4.176  -1.066  -1.096  0.00  0.00    +0.000 OA
ATOM      8  C   UNL     1      -4.178  -2.237  -0.318  0.00  0.00    +0.000 C 
ATOM      9  O   UNL     1      -2.816  -2.364   0.079  0.00  0.00    +0.000 OA
ENDROOT
BRANCH   1  11
ATOM     10  C   UNL     1       1.346   1.509   1.149  0.00  0.00    +0.000 C 
ATOM     11  C   UNL     1       0.055   1.359   1.447  0.00  0.00    +0.000 C 
BRANCH  10  15
ATOM     12  C   UNL     1       4.427  -1.094   0.210  0.00  0.00    +0.000 A 
ATOM     13  C   UNL     1       4.011  -0.908   1.521  0.00  0.00    +0.000 A 
ATOM     14  C   UNL     1       2.732  -0.413   1.735  0.00  0.00    +0.000 A 
ATOM     15  C   UNL     1       2.023   0.266   0.752  0.00  0.00    +0.000 A 
ATOM     16  C   UNL     1       2.474   0.071  -0.548  0.00  0.00    +0.000 A 
ATOM     17  C   UNL     1       3.651  -0.601  -0.832  0.00  0.00    +0.000 A 
ATOM     18  O   UNL     1       3.816  -1.183  -2.093  0.00  0.00    +0.000 OA
BRANCH  12  20
ATOM     19  C   UNL     1       4.965  -3.178  -0.890  0.00  0.00    +0.000 C 
ATOM     20  O   UNL     1       5.345  -2.109  -0.062  0.00  0.00    +0.000 OA
ENDBRANCH  12  20
ENDBRANCH  10  15
ENDBRANCH   1  11
BRANCH   5  21
ATOM     21  O   UNL     1      -3.740   1.959  -1.365  0.00  0.00    +0.000 OA
ATOM     22  C   UNL     1      -4.800   2.432  -0.562  0.00  0.00    +0.000 C 
ENDBRANCH   5  21
BRANCH   6  23
ATOM     23  O   UNL     1      -1.880   2.935   0.329  0.00  0.00    +0.000 OA
ATOM     24  C   UNL     1      -1.705   3.168   1.725  0.00  0.00    +0.000 C 
ENDBRANCH   6  23
TORSDOF 5
