REMARK  Name = 
REMARK  4 active torsions:
REMARK  status: ('A' for Active; 'I' for Inactive)
REMARK    1  A    between atoms: O_2  and  C_3
REMARK    2  A    between atoms: C_6  and  C_7
REMARK    3  A    between atoms: C_8  and  C_9
REMARK    4  A    between atoms: C_14  and  O_15
REMARK                            x       y       z     vdW  Elec       q    Type
REMARK                         _______ _______ _______ _____ _____    ______ ____
ROOT
ATOM      1  C   UNL     1      -1.419   0.704   0.008  0.00  0.00    +0.000 A 
ATOM      2  C   UNL     1      -2.381   0.866  -0.978  0.00  0.00    +0.000 A 
ATOM      3  C   UNL     1      -3.561   0.141  -0.913  0.00  0.00    +0.000 A 
ATOM      4  C   UNL     1      -3.709  -0.797   0.101  0.00  0.00    +0.000 A 
ATOM      5  C   UNL     1      -2.833  -0.851   1.177  0.00  0.00    +0.000 A 
ATOM      6  C   UNL     1      -1.763  -0.000   1.156  0.00  0.00    +0.000 A 
ATOM      7  O   UNL     1      -4.861  -1.549   0.099  0.00  0.00    +0.000 OA
ATOM      8  C   UNL     1      -6.082  -1.165  -0.478  0.00  0.00    +0.000 C 
ATOM      9  C   UNL     1      -6.016   0.178  -1.169  0.00  0.00    +0.000 C 
ATOM     10  O   UNL     1      -4.713   0.514  -1.589  0.00  0.00    +0.000 OA
ENDROOT
BRANCH   1  12
ATOM     11  C   UNL     1       0.993   0.600   0.421  0.00  0.00    +0.000 C 
ATOM     12  C   UNL     1      -0.021   0.997  -0.305  0.00  0.00    +0.000 C 
BRANCH  11  16
ATOM     13  C   UNL     1       4.963  -0.200  -0.543  0.00  0.00    +0.000 A 
ATOM     14  C   UNL     1       4.097   0.157  -1.566  0.00  0.00    +0.000 A 
ATOM     15  C   UNL     1       2.734   0.318  -1.351  0.00  0.00    +0.000 A 
ATOM     16  C   UNL     1       2.202  -0.019  -0.135  0.00  0.00    +0.000 A 
ATOM     17  C   UNL     1       3.016  -0.729   0.738  0.00  0.00    +0.000 A 
ATOM     18  C   UNL     1       4.398  -0.761   0.597  0.00  0.00    +0.000 A 
ATOM     19  O   UNL     1       5.199  -1.317   1.599  0.00  0.00    +0.000 OA
BRANCH  13  21
ATOM     20  C   UNL     1       6.337   1.735  -0.007  0.00  0.00    +0.000 C 
ATOM     21  O   UNL     1       6.233   0.373  -0.418  0.00  0.00    +0.000 OA
ENDBRANCH  13  21
ENDBRANCH  11  16
ENDBRANCH   1  12
BRANCH   6  22
ATOM     22  O   UNL     1      -1.026   0.337   2.296  0.00  0.00    +0.000 OA
ATOM     23  C   UNL     1      -1.788   0.467   3.494  0.00  0.00    +0.000 C 
ENDBRANCH   6  22
TORSDOF 4
