REMARK  Name = 
REMARK  7 active torsions:
REMARK  status: ('A' for Active; 'I' for Inactive)
REMARK    1  A    between atoms: O_2  and  C_3
REMARK    2  A    between atoms: C_6  and  C_7
REMARK    3  A    between atoms: C_8  and  C_9
REMARK    4  A    between atoms: C_11  and  O_12
REMARK    5  A    between atoms: C_14  and  O_15
REMARK    6  A    between atoms: C_17  and  O_18
REMARK    7  A    between atoms: C_20  and  O_21
REMARK                            x       y       z     vdW  Elec       q    Type
REMARK                         _______ _______ _______ _____ _____    ______ ____
ROOT
ATOM      1  C   UNL     1      -1.063  -0.172   0.079  0.00  0.00    +0.000 A 
ATOM      2  C   UNL     1      -1.670  -1.405  -0.122  0.00  0.00    +0.000 A 
ATOM      3  C   UNL     1      -3.011  -1.559  -0.360  0.00  0.00    +0.000 A 
ATOM      4  C   UNL     1      -3.706  -0.436  -0.791  0.00  0.00    +0.000 A 
ATOM      5  C   UNL     1      -3.101   0.810  -0.687  0.00  0.00    +0.000 A 
ATOM      6  C   UNL     1      -1.815   0.964  -0.194  0.00  0.00    +0.000 A 
ENDROOT
BRANCH   1   8
ATOM      7  C   UNL     1       1.090   0.835   0.673  0.00  0.00    +0.000 C 
ATOM      8  C   UNL     1       0.191  -0.111   0.839  0.00  0.00    +0.000 C 
BRANCH   7  12
ATOM      9  C   UNL     1       5.160  -0.004  -0.057  0.00  0.00    +0.000 A 
ATOM     10  C   UNL     1       4.672   1.269  -0.308  0.00  0.00    +0.000 A 
ATOM     11  C   UNL     1       3.354   1.537   0.039  0.00  0.00    +0.000 A 
ATOM     12  C   UNL     1       2.534   0.574   0.614  0.00  0.00    +0.000 A 
ATOM     13  C   UNL     1       3.030  -0.724   0.628  0.00  0.00    +0.000 A 
ATOM     14  C   UNL     1       4.239  -1.041   0.038  0.00  0.00    +0.000 A 
ATOM     15  O   UNL     1       4.521  -2.314  -0.467  0.00  0.00    +0.000 OA
BRANCH   9  17
ATOM     16  C   UNL     1       7.467   0.661   0.170  0.00  0.00    +0.000 C 
ATOM     17  O   UNL     1       6.504  -0.328  -0.110  0.00  0.00    +0.000 OA
ENDBRANCH   9  17
ENDBRANCH   7  12
ENDBRANCH   1   8
BRANCH   3  18
ATOM     18  O   UNL     1      -3.758  -2.639   0.121  0.00  0.00    +0.000 OA
ATOM     19  C   UNL     1      -3.159  -3.861   0.478  0.00  0.00    +0.000 C 
ENDBRANCH   3  18
BRANCH   4  20
ATOM     20  O   UNL     1      -5.096  -0.537  -0.907  0.00  0.00    +0.000 OA
ATOM     21  C   UNL     1      -5.890  -0.959   0.193  0.00  0.00    +0.000 C 
ENDBRANCH   4  20
BRANCH   5  22
ATOM     22  O   UNL     1      -3.848   1.912  -1.057  0.00  0.00    +0.000 OA
ATOM     23  C   UNL     1      -3.325   3.193  -1.297  0.00  0.00    +0.000 C 
ENDBRANCH   5  22
BRANCH   6  24
ATOM     24  O   UNL     1      -1.517   2.130   0.518  0.00  0.00    +0.000 OA
ATOM     25  C   UNL     1      -1.803   2.203   1.913  0.00  0.00    +0.000 C 
ENDBRANCH   6  24
TORSDOF 7
