REMARK  Name = 
REMARK  5 active torsions:
REMARK  status: ('A' for Active; 'I' for Inactive)
REMARK    1  A    between atoms: O_2  and  C_3
REMARK    2  A    between atoms: C_6  and  C_7
REMARK    3  A    between atoms: C_8  and  C_9
REMARK    4  A    between atoms: C_13  and  O_14
REMARK    5  A    between atoms: C_16  and  O_17
REMARK                            x       y       z     vdW  Elec       q    Type
REMARK                         _______ _______ _______ _____ _____    ______ ____
ROOT
ATOM      1  C   UNL     1      -1.280   0.861   1.071  0.00  0.00    +0.000 A 
ATOM      2  C   UNL     1      -1.890  -0.139   1.819  0.00  0.00    +0.000 A 
ATOM      3  C   UNL     1      -3.009  -0.813   1.398  0.00  0.00    +0.000 A 
ATOM      4  C   UNL     1      -3.772  -0.245   0.394  0.00  0.00    +0.000 A 
ATOM      5  C   UNL     1      -3.269   0.858  -0.277  0.00  0.00    +0.000 A 
ATOM      6  C   UNL     1      -2.060   1.429   0.074  0.00  0.00    +0.000 A 
ATOM      7  O   UNL     1      -4.769  -1.152   0.033  0.00  0.00    +0.000 OA
ATOM      8  C   UNL     1      -4.405  -2.432   0.538  0.00  0.00    +0.000 C 
ATOM      9  O   UNL     1      -3.567  -2.073   1.635  0.00  0.00    +0.000 OA
ENDROOT
BRANCH   1  11
ATOM     10  C   UNL     1       1.013  -0.001   1.154  0.00  0.00    +0.000 C 
ATOM     11  C   UNL     1       0.174   1.003   0.997  0.00  0.00    +0.000 C 
BRANCH  10  15
ATOM     12  C   UNL     1       4.683  -0.484  -0.768  0.00  0.00    +0.000 A 
ATOM     13  C   UNL     1       3.747   0.370  -1.339  0.00  0.00    +0.000 A 
ATOM     14  C   UNL     1       2.511   0.603  -0.749  0.00  0.00    +0.000 A 
ATOM     15  C   UNL     1       2.072  -0.321   0.190  0.00  0.00    +0.000 A 
ATOM     16  C   UNL     1       2.829  -1.448   0.430  0.00  0.00    +0.000 A 
ATOM     17  C   UNL     1       4.151  -1.509   0.004  0.00  0.00    +0.000 A 
ATOM     18  O   UNL     1       5.076  -2.383   0.568  0.00  0.00    +0.000 OA
BRANCH  12  20
ATOM     19  C   UNL     1       6.702  -0.155   0.578  0.00  0.00    +0.000 C 
ATOM     20  O   UNL     1       6.032  -0.126  -0.679  0.00  0.00    +0.000 OA
ENDBRANCH  12  20
ENDBRANCH  10  15
ENDBRANCH   1  11
BRANCH   5  21
ATOM     21  O   UNL     1      -4.007   1.494  -1.271  0.00  0.00    +0.000 OA
ATOM     22  C   UNL     1      -4.498   2.797  -1.072  0.00  0.00    +0.000 C 
ENDBRANCH   5  21
BRANCH   6  23
ATOM     23  O   UNL     1      -1.433   2.220  -0.892  0.00  0.00    +0.000 OA
ATOM     24  C   UNL     1      -1.030   1.648  -2.134  0.00  0.00    +0.000 C 
ENDBRANCH   6  23
TORSDOF 5
