REMARK  Name = 
REMARK  6 active torsions:
REMARK  status: ('A' for Active; 'I' for Inactive)
REMARK    1  A    between atoms: O_2  and  C_3
REMARK    2  A    between atoms: C_6  and  C_7
REMARK    3  A    between atoms: C_8  and  C_9
REMARK    4  A    between atoms: C_11  and  O_12
REMARK    5  A    between atoms: C_14  and  O_15
REMARK    6  A    between atoms: C_17  and  O_18
REMARK                            x       y       z     vdW  Elec       q    Type
REMARK                         _______ _______ _______ _____ _____    ______ ____
ROOT
ATOM      1  C   UNL     1       0.869   0.724  -0.948  0.00  0.00    +0.000 C 
ATOM      2  C   UNL     1       0.012  -0.270  -0.787  0.00  0.00    +0.000 C 
ENDROOT
BRANCH   1   6
ATOM      3  C   UNL     1       4.780   0.175   0.431  0.00  0.00    +0.000 A 
ATOM      4  C   UNL     1       4.398   1.467   0.089  0.00  0.00    +0.000 A 
ATOM      5  C   UNL     1       3.066   1.630  -0.271  0.00  0.00    +0.000 A 
ATOM      6  C   UNL     1       2.313   0.559  -0.734  0.00  0.00    +0.000 A 
ATOM      7  C   UNL     1       2.891  -0.703  -0.657  0.00  0.00    +0.000 A 
ATOM      8  O   UNL     1       2.091  -1.788  -1.003  0.00  0.00    +0.000 OA
ATOM      9  C   UNL     1       3.951  -0.915   0.214  0.00  0.00    +0.000 A 
ATOM     10  O   UNL     1       4.202  -2.165   0.789  0.00  0.00    +0.000 OA
BRANCH   3  12
ATOM     11  C   UNL     1       7.154   0.782   0.496  0.00  0.00    +0.000 C 
ATOM     12  O   UNL     1       6.064  -0.044   0.896  0.00  0.00    +0.000 OA
ENDBRANCH   3  12
ENDBRANCH   1   6
BRANCH   2  13
ATOM     13  C   UNL     1      -1.223  -0.159  -0.021  0.00  0.00    +0.000 A 
ATOM     14  C   UNL     1      -2.046  -1.261   0.015  0.00  0.00    +0.000 A 
ATOM     15  C   UNL     1      -3.401  -1.073   0.261  0.00  0.00    +0.000 A 
ATOM     16  C   UNL     1      -3.935   0.177   0.530  0.00  0.00    +0.000 A 
ATOM     17  C   UNL     1      -3.057   1.244   0.670  0.00  0.00    +0.000 A 
ATOM     18  C   UNL     1      -1.698   1.048   0.464  0.00  0.00    +0.000 A 
BRANCH  15  19
ATOM     19  O   UNL     1      -4.210  -2.161   0.600  0.00  0.00    +0.000 OA
ATOM     20  C   UNL     1      -3.762  -2.925   1.718  0.00  0.00    +0.000 C 
ENDBRANCH  15  19
BRANCH  16  21
ATOM     21  O   UNL     1      -5.235   0.421   0.078  0.00  0.00    +0.000 OA
ATOM     22  C   UNL     1      -6.242  -0.556   0.179  0.00  0.00    +0.000 C 
ENDBRANCH  16  21
BRANCH  17  23
ATOM     23  O   UNL     1      -3.599   2.526   0.641  0.00  0.00    +0.000 OA
ATOM     24  C   UNL     1      -3.384   3.265  -0.553  0.00  0.00    +0.000 C 
ENDBRANCH  17  23
ENDBRANCH   2  13
TORSDOF 6
