REMARK  Name = 
REMARK  8 active torsions:
REMARK  status: ('A' for Active; 'I' for Inactive)
REMARK    1  A    between atoms: O_2  and  C_3
REMARK    2  A    between atoms: C_5  and  O_6
REMARK    3  A    between atoms: C_8  and  O_9
REMARK    4  A    between atoms: C_12  and  C_13
REMARK    5  A    between atoms: C_14  and  C_15
REMARK    6  A    between atoms: C_14  and  C_17
REMARK    7  A    between atoms: C_20  and  N_21
REMARK    8  A    between atoms: C_24  and  O_25
REMARK                            x       y       z     vdW  Elec       q    Type
REMARK                         _______ _______ _______ _____ _____    ______ ____
ROOT
ATOM      1  C   UNL     1       0.954  -1.666   0.713  0.00  0.00    +0.000 C 
ATOM      2  C   UNL     1      -0.312  -1.465   1.066  0.00  0.00    +0.000 C 
ENDROOT
BRANCH   1   8
ATOM      3  C   UNL     1       2.552  -0.829  -0.897  0.00  0.00    +0.000 A 
ATOM      4  C   UNL     1       3.730  -0.114  -1.084  0.00  0.00    +0.000 A 
ATOM      5  C   UNL     1       4.103   0.856  -0.167  0.00  0.00    +0.000 A 
ATOM      6  C   UNL     1       3.197   1.218   0.822  0.00  0.00    +0.000 A 
ATOM      7  C   UNL     1       2.018   0.502   0.981  0.00  0.00    +0.000 A 
ATOM      8  C   UNL     1       1.659  -0.524   0.117  0.00  0.00    +0.000 A 
BRANCH   3  10
ATOM      9  C   UNL     1       2.169  -1.749  -3.068  0.00  0.00    +0.000 C 
ATOM     10  O   UNL     1       2.394  -1.976  -1.682  0.00  0.00    +0.000 OA
ENDBRANCH   3  10
BRANCH   5  11
ATOM     11  O   UNL     1       5.446   1.112   0.129  0.00  0.00    +0.000 OA
ATOM     12  C   UNL     1       6.432   1.237  -0.888  0.00  0.00    +0.000 C 
ENDBRANCH   5  11
BRANCH   6  13
ATOM     13  O   UNL     1       3.305   2.517   1.327  0.00  0.00    +0.000 OA
ATOM     14  C   UNL     1       2.200   3.391   1.112  0.00  0.00    +0.000 C 
ENDBRANCH   6  13
ENDBRANCH   1   8
BRANCH   2  15
ATOM     15  C   UNL     1      -1.163  -0.876   0.023  0.00  0.00    +0.000 A 
ATOM     16  C   UNL     1      -0.919   0.363  -0.525  0.00  0.00    +0.000 A 
ATOM     17  C   UNL     1      -1.986   1.194  -0.834  0.00  0.00    +0.000 A 
ATOM     18  C   UNL     1      -3.304   0.785  -0.683  0.00  0.00    +0.000 A 
ATOM     19  C   UNL     1      -3.500  -0.586  -0.582  0.00  0.00    +0.000 A 
ATOM     20  C   UNL     1      -2.438  -1.389  -0.186  0.00  0.00    +0.000 A 
BRANCH  18  21
ATOM     21  N   UNL     1      -4.334   1.720  -0.362  0.00  0.00    +0.000 N 
ATOM     22  O   UNL     1      -4.844   1.795   0.775  0.00  0.00    +0.000 OA
ATOM     23  O   UNL     1      -5.013   2.369  -1.379  0.00  0.00    +0.000 OA
ENDBRANCH  18  21
BRANCH  19  24
ATOM     24  O   UNL     1      -4.822  -0.982  -0.346  0.00  0.00    +0.000 OA
ATOM     25  C   UNL     1      -5.228  -1.317   0.979  0.00  0.00    +0.000 C 
ENDBRANCH  19  24
ENDBRANCH   2  15
BRANCH   2  26
ATOM     26  C   UNL     1      -0.848  -2.358   2.069  0.00  0.00    +0.000 C 
ATOM     27  N   UNL     1      -1.448  -3.226   2.570  0.00  0.00    +0.000 NA
ENDBRANCH   2  26
TORSDOF 8
