REMARK  Name = 
REMARK  8 active torsions:
REMARK  status: ('A' for Active; 'I' for Inactive)
REMARK    1  A    between atoms: C_2  and  C_3
REMARK    2  A    between atoms: C_5  and  O_6
REMARK    3  A    between atoms: O_6  and  C_7
REMARK    4  A    between atoms: C_10  and  C_11
REMARK    5  A    between atoms: C_12  and  C_13
REMARK    6  A    between atoms: C_18  and  O_19
REMARK    7  A    between atoms: O_19  and  C_20
REMARK    8  A    between atoms: C_22  and  C_23
REMARK                            x       y       z     vdW  Elec       q    Type
REMARK                         _______ _______ _______ _____ _____    ______ ____
ROOT
ATOM      1  C   UNL     1      -0.085   1.785  -0.918  0.00  0.00    +0.000 C 
ATOM      2  C   UNL     1      -0.796   1.940   0.208  0.00  0.00    +0.000 C 
ENDROOT
BRANCH   1   6
ATOM      3  C   UNL     1       3.538   0.023  -0.893  0.00  0.00    +0.000 A 
ATOM      4  C   UNL     1       2.529  -0.827  -1.337  0.00  0.00    +0.000 A 
ATOM      5  C   UNL     1       1.230  -0.326  -1.319  0.00  0.00    +0.000 A 
ATOM      6  C   UNL     1       1.008   0.850  -0.676  0.00  0.00    +0.000 A 
ATOM      7  C   UNL     1       1.920   1.246   0.290  0.00  0.00    +0.000 A 
ATOM      8  O   UNL     1       1.547   2.191   1.218  0.00  0.00    +0.000 OA
ATOM      9  C   UNL     1       3.222   0.764   0.211  0.00  0.00    +0.000 A 
BRANCH   3  10
ATOM     10  O   UNL     1       4.866  -0.176  -1.280  0.00  0.00    +0.000 OA
BRANCH  10  13
ATOM     11  C   UNL     1       6.905   0.968   1.452  0.00  0.00    +0.000 C 
ATOM     12  O   UNL     1       5.720   0.738   0.544  0.00  0.00    +0.000 OA
ATOM     13  C   UNL     1       5.602  -0.683   0.041  0.00  0.00    +0.000 C 
ATOM     14  C   UNL     1       7.178  -0.475  -0.705  0.00  0.00    +0.000 C 
ATOM     15  O   UNL     1       6.884  -1.635  -1.626  0.00  0.00    +0.000 OA
ATOM     16  C   UNL     1       7.712  -1.540   0.525  0.00  0.00    +0.000 C 
ATOM     17  O   UNL     1       9.157  -1.020   0.543  0.00  0.00    +0.000 OA
ATOM     18  C   UNL     1       7.339  -0.652   1.960  0.00  0.00    +0.000 C 
ATOM     19  O   UNL     1       5.896  -1.150   2.103  0.00  0.00    +0.000 OA
BRANCH  11  21
ATOM     20  O   UNL     1       7.993   2.154   0.017  0.00  0.00    +0.000 OA
ATOM     21  C   UNL     1       8.117   1.140   0.288  0.00  0.00    +0.000 C 
ENDBRANCH  11  21
ENDBRANCH  10  13
ENDBRANCH   3  10
ENDBRANCH   1   6
BRANCH   2  22
ATOM     22  C   UNL     1      -1.596   0.758   0.485  0.00  0.00    +0.000 A 
ATOM     23  C   UNL     1      -1.123  -0.413   1.020  0.00  0.00    +0.000 A 
ATOM     24  C   UNL     1      -1.885  -1.572   0.920  0.00  0.00    +0.000 A 
ATOM     25  O   UNL     1      -1.363  -2.756   1.457  0.00  0.00    +0.000 OA
ATOM     26  C   UNL     1      -3.082  -1.585   0.206  0.00  0.00    +0.000 A 
ATOM     27  C   UNL     1      -3.342  -0.519  -0.624  0.00  0.00    +0.000 A 
ATOM     28  C   UNL     1      -2.802   0.693  -0.199  0.00  0.00    +0.000 A 
BRANCH  27  29
ATOM     29  O   UNL     1      -4.558  -0.362  -1.317  0.00  0.00    +0.000 OA
BRANCH  29  30
ATOM     30  C   UNL     1      -5.567  -0.140  -0.107  0.00  0.00    +0.000 C 
ATOM     31  O   UNL     1      -6.720  -0.829  -0.881  0.00  0.00    +0.000 OA
ATOM     32  C   UNL     1      -6.945  -0.648   0.633  0.00  0.00    +0.000 C 
ATOM     33  C   UNL     1      -8.322   0.338   0.353  0.00  0.00    +0.000 C 
ATOM     34  O   UNL     1      -8.006   1.221   1.559  0.00  0.00    +0.000 OA
ATOM     35  C   UNL     1      -7.693   1.496  -0.770  0.00  0.00    +0.000 C 
ATOM     36  O   UNL     1      -7.726   0.554  -1.989  0.00  0.00    +0.000 OA
ATOM     37  C   UNL     1      -5.975   1.484  -0.598  0.00  0.00    +0.000 C 
ATOM     38  O   UNL     1      -6.024   1.976   0.849  0.00  0.00    +0.000 OA
BRANCH  32  39
ATOM     39  C   UNL     1      -7.887  -2.027   0.682  0.00  0.00    +0.000 C 
ATOM     40  O   UNL     1      -6.869  -2.984   0.495  0.00  0.00    +0.000 OA
ENDBRANCH  32  39
ENDBRANCH  29  30
ENDBRANCH  27  29
ENDBRANCH   2  22
TORSDOF 8
