REMARK  Name = 
REMARK  8 active torsions:
REMARK  status: ('A' for Active; 'I' for Inactive)
REMARK    1  A    between atoms: O_2  and  C_3
REMARK    2  A    between atoms: C_5  and  O_6
REMARK    3  A    between atoms: C_8  and  O_9
REMARK    4  A    between atoms: C_12  and  C_13
REMARK    5  A    between atoms: C_14  and  C_15
REMARK    6  A    between atoms: C_14  and  C_17
REMARK    7  A    between atoms: C_20  and  N_21
REMARK    8  A    between atoms: C_24  and  O_25
REMARK                            x       y       z     vdW  Elec       q    Type
REMARK                         _______ _______ _______ _____ _____    ______ ____
ROOT
ATOM      1  C   UNL     1      -0.590  -0.374  -1.095  0.00  0.00    +0.000 C 
ATOM      2  C   UNL     1       0.439  -0.840  -0.386  0.00  0.00    +0.000 C 
ENDROOT
BRANCH   1   8
ATOM      3  C   UNL     1      -2.098   0.522   0.610  0.00  0.00    +0.000 A 
ATOM      4  C   UNL     1      -3.274   0.325   1.319  0.00  0.00    +0.000 A 
ATOM      5  C   UNL     1      -4.353  -0.282   0.691  0.00  0.00    +0.000 A 
ATOM      6  C   UNL     1      -4.327  -0.557  -0.671  0.00  0.00    +0.000 A 
ATOM      7  C   UNL     1      -3.061  -0.682  -1.229  0.00  0.00    +0.000 A 
ATOM      8  C   UNL     1      -1.938  -0.270  -0.521  0.00  0.00    +0.000 A 
BRANCH   3  10
ATOM      9  C   UNL     1      -1.757   2.892   0.359  0.00  0.00    +0.000 C 
ATOM     10  O   UNL     1      -1.278   1.635   0.824  0.00  0.00    +0.000 OA
ENDBRANCH   3  10
BRANCH   5  11
ATOM     11  O   UNL     1      -5.537  -0.584   1.360  0.00  0.00    +0.000 OA
ATOM     12  C   UNL     1      -6.143  -1.863   1.188  0.00  0.00    +0.000 C 
ENDBRANCH   5  11
BRANCH   6  13
ATOM     13  O   UNL     1      -5.470  -0.412  -1.460  0.00  0.00    +0.000 OA
ATOM     14  C   UNL     1      -6.050   0.879  -1.613  0.00  0.00    +0.000 C 
ENDBRANCH   6  13
ENDBRANCH   1   8
BRANCH   2  15
ATOM     15  C   UNL     1       1.791  -0.285  -0.523  0.00  0.00    +0.000 A 
ATOM     16  C   UNL     1       2.016   1.081  -0.644  0.00  0.00    +0.000 A 
ATOM     17  C   UNL     1       3.076   1.642   0.057  0.00  0.00    +0.000 A 
ATOM     18  C   UNL     1       4.142   0.875   0.509  0.00  0.00    +0.000 A 
ATOM     19  C   UNL     1       4.051  -0.498   0.313  0.00  0.00    +0.000 A 
ATOM     20  C   UNL     1       2.896  -1.046  -0.204  0.00  0.00    +0.000 A 
BRANCH  18  21
ATOM     21  N   UNL     1       5.411   1.490   0.757  0.00  0.00    +0.000 N 
ATOM     22  O   UNL     1       5.569   2.166   1.799  0.00  0.00    +0.000 OA
ATOM     23  O   UNL     1       6.147   1.850  -0.336  0.00  0.00    +0.000 OA
ENDBRANCH  18  21
BRANCH  19  24
ATOM     24  O   UNL     1       5.225  -1.239   0.473  0.00  0.00    +0.000 OA
ATOM     25  C   UNL     1       5.181  -2.469   1.191  0.00  0.00    +0.000 C 
ENDBRANCH  19  24
ENDBRANCH   2  15
BRANCH   2  26
ATOM     26  C   UNL     1       0.080  -1.709   0.712  0.00  0.00    +0.000 C 
ATOM     27  N   UNL     1      -0.146  -2.246   1.723  0.00  0.00    +0.000 NA
ENDBRANCH   2  26
TORSDOF 8
