REMARK  Name = 
REMARK  8 active torsions:
REMARK  status: ('A' for Active; 'I' for Inactive)
REMARK    1  A    between atoms: C_2  and  C_3
REMARK    2  A    between atoms: C_5  and  O_6
REMARK    3  A    between atoms: O_6  and  C_7
REMARK    4  A    between atoms: C_10  and  C_11
REMARK    5  A    between atoms: C_12  and  C_13
REMARK    6  A    between atoms: C_18  and  O_19
REMARK    7  A    between atoms: O_19  and  C_20
REMARK    8  A    between atoms: C_22  and  C_23
REMARK                            x       y       z     vdW  Elec       q    Type
REMARK                         _______ _______ _______ _____ _____    ______ ____
ROOT
ATOM      1  C   UNL     1       0.257  -1.194   0.803  0.00  0.00    +0.000 C 
ATOM      2  C   UNL     1      -0.383  -0.786  -0.278  0.00  0.00    +0.000 C 
ENDROOT
BRANCH   1   6
ATOM      3  C   UNL     1       4.247  -0.881  -0.471  0.00  0.00    +0.000 A 
ATOM      4  C   UNL     1       3.676  -2.114  -0.179  0.00  0.00    +0.000 A 
ATOM      5  C   UNL     1       2.440  -2.168   0.452  0.00  0.00    +0.000 A 
ATOM      6  C   UNL     1       1.715  -1.020   0.747  0.00  0.00    +0.000 A 
ATOM      7  C   UNL     1       2.208   0.205   0.324  0.00  0.00    +0.000 A 
ATOM      8  O   UNL     1       1.368   1.183  -0.221  0.00  0.00    +0.000 OA
ATOM      9  C   UNL     1       3.522   0.211  -0.020  0.00  0.00    +0.000 A 
BRANCH   3  10
ATOM     10  O   UNL     1       5.523  -0.794  -1.037  0.00  0.00    +0.000 OA
BRANCH  10  13
ATOM     11  C   UNL     1       6.658   0.362   0.310  0.00  0.00    +0.000 C 
ATOM     12  O   UNL     1       6.132   1.424  -0.642  0.00  0.00    +0.000 OA
ATOM     13  C   UNL     1       5.492   0.593  -1.780  0.00  0.00    +0.000 C 
ATOM     14  C   UNL     1       7.026   0.397  -2.606  0.00  0.00    +0.000 C 
ATOM     15  O   UNL     1       6.453  -0.630  -3.548  0.00  0.00    +0.000 OA
ATOM     16  C   UNL     1       7.659  -0.800  -1.552  0.00  0.00    +0.000 C 
ATOM     17  O   UNL     1       8.965  -0.752  -2.310  0.00  0.00    +0.000 OA
ATOM     18  C   UNL     1       8.209   0.428  -0.471  0.00  0.00    +0.000 C 
ATOM     19  O   UNL     1       8.794  -0.592   0.470  0.00  0.00    +0.000 OA
BRANCH  11  21
ATOM     20  O   UNL     1       6.352   2.071   1.482  0.00  0.00    +0.000 OA
ATOM     21  C   UNL     1       7.088   1.531   1.409  0.00  0.00    +0.000 C 
ENDBRANCH  11  21
ENDBRANCH  10  13
ENDBRANCH   3  10
ENDBRANCH   1   6
BRANCH   2  22
ATOM     22  C   UNL     1      -1.820  -0.475  -0.292  0.00  0.00    +0.000 A 
ATOM     23  C   UNL     1      -2.241   0.427  -1.261  0.00  0.00    +0.000 A 
ATOM     24  C   UNL     1      -3.353   1.211  -1.081  0.00  0.00    +0.000 A 
ATOM     25  O   UNL     1      -4.162   1.543  -2.164  0.00  0.00    +0.000 OA
ATOM     26  C   UNL     1      -3.732   1.446   0.235  0.00  0.00    +0.000 A 
ATOM     27  C   UNL     1      -3.481   0.468   1.193  0.00  0.00    +0.000 A 
ATOM     28  C   UNL     1      -2.410  -0.372   0.949  0.00  0.00    +0.000 A 
BRANCH  27  29
ATOM     29  O   UNL     1      -4.272   0.183   2.248  0.00  0.00    +0.000 OA
BRANCH  29  30
ATOM     30  C   UNL     1      -5.699  -0.419   1.993  0.00  0.00    +0.000 C 
ATOM     31  O   UNL     1      -5.611  -0.357   0.441  0.00  0.00    +0.000 OA
ATOM     32  C   UNL     1      -6.956  -1.071   0.289  0.00  0.00    +0.000 C 
ATOM     33  C   UNL     1      -7.838   0.427   0.222  0.00  0.00    +0.000 C 
ATOM     34  O   UNL     1      -9.165  -0.285   0.129  0.00  0.00    +0.000 OA
ATOM     35  C   UNL     1      -7.961   0.488   1.942  0.00  0.00    +0.000 C 
ATOM     36  O   UNL     1      -8.608   1.854   1.850  0.00  0.00    +0.000 OA
ATOM     37  C   UNL     1      -6.393   1.192   2.027  0.00  0.00    +0.000 C 
ATOM     38  O   UNL     1      -6.411   1.221   3.530  0.00  0.00    +0.000 OA
BRANCH  32  39
ATOM     39  C   UNL     1      -6.846  -1.117  -1.366  0.00  0.00    +0.000 C 
ATOM     40  O   UNL     1      -6.442   0.121  -1.769  0.00  0.00    +0.000 OA
ENDBRANCH  32  39
ENDBRANCH  29  30
ENDBRANCH  27  29
ENDBRANCH   2  22
TORSDOF 8
