REMARK  Name = 
REMARK  5 active torsions:
REMARK  status: ('A' for Active; 'I' for Inactive)
REMARK    1  A    between atoms: C_2  and  C_3
REMARK    2  A    between atoms: C_5  and  O_6
REMARK    3  A    between atoms: O_6  and  C_7
REMARK    4  A    between atoms: C_13  and  C_14
REMARK    5  A    between atoms: C_15  and  C_16
REMARK                            x       y       z     vdW  Elec       q    Type
REMARK                         _______ _______ _______ _____ _____    ______ ____
ROOT
ATOM      1  C   UNL     1       0.278  -0.562   0.315  0.00  0.00    +0.000 A 
ATOM      2  C   UNL     1       0.503  -1.482   1.329  0.00  0.00    +0.000 A 
ATOM      3  C   UNL     1       0.308  -2.850   1.173  0.00  0.00    +0.000 A 
ATOM      4  O   UNL     1       0.980  -3.776   1.971  0.00  0.00    +0.000 OA
ATOM      5  C   UNL     1      -0.410  -3.282   0.069  0.00  0.00    +0.000 A 
ATOM      6  C   UNL     1      -0.784  -2.400  -0.904  0.00  0.00    +0.000 A 
ATOM      7  C   UNL     1      -0.668  -1.047  -0.600  0.00  0.00    +0.000 A 
ENDROOT
BRANCH   7   8
ATOM      8  C   UNL     1      -1.560  -0.027  -1.175  0.00  0.00    +0.000 C 
ATOM      9  C   UNL     1      -2.726  -0.249  -1.718  0.00  0.00    +0.000 C 
BRANCH   9  10
ATOM     10  C   UNL     1      -4.023   0.092  -1.111  0.00  0.00    +0.000 A 
ATOM     11  C   UNL     1      -4.560   1.364  -1.173  0.00  0.00    +0.000 A 
ATOM     12  C   UNL     1      -5.431   1.859  -0.210  0.00  0.00    +0.000 A 
ATOM     13  O   UNL     1      -6.353   2.857  -0.481  0.00  0.00    +0.000 OA
ATOM     14  C   UNL     1      -5.542   1.123   0.946  0.00  0.00    +0.000 A 
ATOM     15  C   UNL     1      -5.119  -0.199   1.022  0.00  0.00    +0.000 A 
ATOM     16  O   UNL     1      -4.944  -0.842   2.253  0.00  0.00    +0.000 OA
ATOM     17  C   UNL     1      -4.645  -0.730  -0.173  0.00  0.00    +0.000 A 
ENDBRANCH   9  10
ENDBRANCH   7   8
BRANCH   1  18
ATOM     18  O   UNL     1       1.149   0.226  -0.335  0.00  0.00    +0.000 OA
BRANCH  18  21
ATOM     19  C   UNL     1       4.063   1.794   0.254  0.00  0.00    +0.000 C 
ATOM     20  O   UNL     1       3.094   1.203  -0.756  0.00  0.00    +0.000 OA
ATOM     21  C   UNL     1       2.099   1.216   0.419  0.00  0.00    +0.000 C 
ATOM     22  C   UNL     1       2.819  -0.067   1.383  0.00  0.00    +0.000 C 
ATOM     23  O   UNL     1       3.788   0.835   2.124  0.00  0.00    +0.000 OA
ATOM     24  C   UNL     1       3.944  -0.826   0.317  0.00  0.00    +0.000 C 
ATOM     25  O   UNL     1       3.112  -0.739  -0.961  0.00  0.00    +0.000 OA
ATOM     26  C   UNL     1       5.065   0.431  -0.084  0.00  0.00    +0.000 C 
ATOM     27  O   UNL     1       5.731   0.364   1.276  0.00  0.00    +0.000 OA
BRANCH  19  29
ATOM     28  O   UNL     1       5.025   3.038  -0.906  0.00  0.00    +0.000 OA
ATOM     29  C   UNL     1       4.808   2.678  -0.948  0.00  0.00    +0.000 C 
ENDBRANCH  19  29
ENDBRANCH  18  21
ENDBRANCH   1  18
TORSDOF 5
