REMARK  Name = 
REMARK  10 active torsions:
REMARK  status: ('A' for Active; 'I' for Inactive)
REMARK    1  A    between atoms: O_2  and  C_3
REMARK    2  A    between atoms: C_6  and  C_7
REMARK    3  A    between atoms: C_8  and  C_9
REMARK    4  A    between atoms: C_11  and  O_12
REMARK    5  A    between atoms: C_14  and  O_15
REMARK    6  A    between atoms: C_17  and  O_18
REMARK    7  A    between atoms: C_21  and  O_22
REMARK    8  A    between atoms: O_22  and  P_23
REMARK    9  A    between atoms: C_27  and  O_28
REMARK   10  A    between atoms: O_28  and  P_29
REMARK                            x       y       z     vdW  Elec       q    Type
REMARK                         _______ _______ _______ _____ _____    ______ ____
ROOT
ATOM      1  C   UNL     1      -3.242   1.508  -0.472  0.00  0.00    +0.000 A 
ATOM      2  C   UNL     1      -2.211   2.436  -0.528  0.00  0.00    +0.000 A 
ATOM      3  C   UNL     1      -1.025   2.202   0.158  0.00  0.00    +0.000 A 
ATOM      4  C   UNL     1      -0.806   0.944   0.706  0.00  0.00    +0.000 A 
ATOM      5  C   UNL     1      -1.851   0.054   0.887  0.00  0.00    +0.000 A 
ATOM      6  C   UNL     1      -3.095   0.470   0.438  0.00  0.00    +0.000 A 
ENDROOT
BRANCH   1   8
ATOM      7  C   UNL     1      -3.831   0.688  -2.626  0.00  0.00    +0.000 C 
ATOM      8  O   UNL     1      -4.217   1.421  -1.471  0.00  0.00    +0.000 OA
ENDBRANCH   1   8
BRANCH   4   9
ATOM      9  C   UNL     1       0.551   0.394   0.803  0.00  0.00    +0.000 C 
ATOM     10  C   UNL     1       1.037  -0.378  -0.170  0.00  0.00    +0.000 C 
BRANCH  10  11
ATOM     11  C   UNL     1       2.450  -0.334  -0.560  0.00  0.00    +0.000 A 
ATOM     12  C   UNL     1       3.312  -1.381  -0.255  0.00  0.00    +0.000 A 
ATOM     13  C   UNL     1       4.669  -1.156  -0.100  0.00  0.00    +0.000 A 
ATOM     14  C   UNL     1       5.148   0.144  -0.023  0.00  0.00    +0.000 A 
ATOM     15  C   UNL     1       4.396   1.119  -0.666  0.00  0.00    +0.000 A 
ATOM     16  C   UNL     1       3.066   0.855  -0.927  0.00  0.00    +0.000 A 
BRANCH  13  17
ATOM     17  O   UNL     1       5.565  -2.156   0.256  0.00  0.00    +0.000 OA
ATOM     18  C   UNL     1       5.551  -3.449  -0.301  0.00  0.00    +0.000 C 
ENDBRANCH  13  17
BRANCH  14  19
ATOM     19  O   UNL     1       6.176   0.473   0.866  0.00  0.00    +0.000 OA
ATOM     20  C   UNL     1       7.529   0.266   0.467  0.00  0.00    +0.000 C 
ENDBRANCH  14  19
BRANCH  15  21
ATOM     21  O   UNL     1       4.873   2.426  -0.523  0.00  0.00    +0.000 OA
ATOM     22  C   UNL     1       4.199   3.209   0.458  0.00  0.00    +0.000 C 
ENDBRANCH  15  21
ENDBRANCH  10  11
ENDBRANCH   4   9
BRANCH   5  23
ATOM     23  O   UNL     1      -1.659  -1.240   1.377  0.00  0.00    +0.000 OA
BRANCH  23  24
ATOM     24  P   UNL     1      -1.932  -2.547   0.294  0.00  0.00    +0.000 P 
ATOM     25  O   UNL     1      -2.054  -2.053  -1.139  0.00  0.00    +0.000 OA
ATOM     26  O   UNL     1      -0.670  -3.656   0.415  0.00  0.00    +0.000 OA
ATOM     27  O   UNL     1      -3.388  -3.322   0.679  0.00  0.00    +0.000 OA
ENDBRANCH  23  24
ENDBRANCH   5  23
BRANCH   6  28
ATOM     28  O   UNL     1      -4.235  -0.192   0.853  0.00  0.00    +0.000 OA
BRANCH  28  29
ATOM     29  P   UNL     1      -5.697   0.644   1.210  0.00  0.00    +0.000 P 
ATOM     30  O   UNL     1      -5.573   2.123   0.978  0.00  0.00    +0.000 OA
ATOM     31  O   UNL     1      -6.153   0.424   2.821  0.00  0.00    +0.000 OA
ATOM     32  O   UNL     1      -6.885   0.067   0.145  0.00  0.00    +0.000 OA
ENDBRANCH  28  29
ENDBRANCH   6  28
TORSDOF 10
