REMARK  Name = 
REMARK  8 active torsions:
REMARK  status: ('A' for Active; 'I' for Inactive)
REMARK    1  A    between atoms: C_2  and  C_3
REMARK    2  A    between atoms: C_5  and  O_6
REMARK    3  A    between atoms: O_6  and  C_7
REMARK    4  A    between atoms: C_10  and  C_11
REMARK    5  A    between atoms: C_12  and  C_13
REMARK    6  A    between atoms: C_18  and  O_19
REMARK    7  A    between atoms: O_19  and  C_20
REMARK    8  A    between atoms: C_22  and  C_23
REMARK                            x       y       z     vdW  Elec       q    Type
REMARK                         _______ _______ _______ _____ _____    ______ ____
ROOT
ATOM      1  C   UNL     1       0.236  -2.576  -0.158  0.00  0.00    +0.000 C 
ATOM      2  C   UNL     1      -0.311  -1.631  -0.758  0.00  0.00    +0.000 C 
ENDROOT
BRANCH   1   6
ATOM      3  C   UNL     1       4.085  -1.581   0.588  0.00  0.00    +0.000 A 
ATOM      4  C   UNL     1       3.739  -1.554  -0.746  0.00  0.00    +0.000 A 
ATOM      5  C   UNL     1       2.520  -2.135  -1.078  0.00  0.00    +0.000 A 
ATOM      6  C   UNL     1       1.699  -2.687  -0.125  0.00  0.00    +0.000 A 
ATOM      7  C   UNL     1       2.252  -3.042   1.079  0.00  0.00    +0.000 A 
ATOM      8  O   UNL     1       1.589  -3.984   1.842  0.00  0.00    +0.000 OA
ATOM      9  C   UNL     1       3.506  -2.543   1.407  0.00  0.00    +0.000 A 
BRANCH   3  10
ATOM     10  O   UNL     1       5.160  -0.910   1.106  0.00  0.00    +0.000 OA
BRANCH  10  13
ATOM     11  C   UNL     1       6.516   0.665  -1.741  0.00  0.00    +0.000 C 
ATOM     12  O   UNL     1       6.511  -0.318  -0.581  0.00  0.00    +0.000 OA
ATOM     13  C   UNL     1       5.494   0.390   0.321  0.00  0.00    +0.000 C 
ATOM     14  C   UNL     1       6.691   0.909   1.475  0.00  0.00    +0.000 C 
ATOM     15  O   UNL     1       7.349  -0.427   1.638  0.00  0.00    +0.000 OA
ATOM     16  C   UNL     1       7.820   1.382   0.279  0.00  0.00    +0.000 C 
ATOM     17  O   UNL     1       8.063   2.714   0.927  0.00  0.00    +0.000 OA
ATOM     18  C   UNL     1       6.600   2.054  -0.714  0.00  0.00    +0.000 C 
ATOM     19  O   UNL     1       7.599   2.782  -1.561  0.00  0.00    +0.000 OA
BRANCH  11  21
ATOM     20  O   UNL     1       8.373   0.503  -1.777  0.00  0.00    +0.000 OA
ATOM     21  C   UNL     1       8.144   0.522  -1.957  0.00  0.00    +0.000 C 
ENDBRANCH  11  21
ENDBRANCH  10  13
ENDBRANCH   3  10
ENDBRANCH   1   6
BRANCH   2  22
ATOM     22  C   UNL     1      -1.381  -0.742  -0.568  0.00  0.00    +0.000 A 
ATOM     23  C   UNL     1      -1.074   0.606  -0.426  0.00  0.00    +0.000 A 
ATOM     24  C   UNL     1      -2.099   1.517  -0.268  0.00  0.00    +0.000 A 
ATOM     25  O   UNL     1      -1.890   2.819   0.201  0.00  0.00    +0.000 OA
ATOM     26  C   UNL     1      -3.324   1.094  -0.634  0.00  0.00    +0.000 A 
ATOM     27  C   UNL     1      -3.756  -0.222  -0.720  0.00  0.00    +0.000 A 
ATOM     28  C   UNL     1      -2.693  -1.117  -0.824  0.00  0.00    +0.000 A 
BRANCH  27  29
ATOM     29  O   UNL     1      -4.971  -0.611  -0.131  0.00  0.00    +0.000 OA
BRANCH  29  30
ATOM     30  C   UNL     1      -6.226  -0.131  -0.929  0.00  0.00    +0.000 C 
ATOM     31  O   UNL     1      -7.197  -0.430   0.200  0.00  0.00    +0.000 OA
ATOM     32  C   UNL     1      -8.155   0.481  -0.530  0.00  0.00    +0.000 C 
ATOM     33  C   UNL     1      -8.160   1.462   0.867  0.00  0.00    +0.000 C 
ATOM     34  O   UNL     1      -8.449   2.766   0.166  0.00  0.00    +0.000 OA
ATOM     35  C   UNL     1      -6.484   1.785   0.987  0.00  0.00    +0.000 C 
ATOM     36  O   UNL     1      -6.072   0.457   1.592  0.00  0.00    +0.000 OA
ATOM     37  C   UNL     1      -5.878   1.532  -0.585  0.00  0.00    +0.000 C 
ATOM     38  O   UNL     1      -7.017   2.120  -1.381  0.00  0.00    +0.000 OA
BRANCH  32  39
ATOM     39  C   UNL     1      -9.478  -0.352  -0.001  0.00  0.00    +0.000 C 
ATOM     40  O   UNL     1      -9.329  -1.565  -0.653  0.00  0.00    +0.000 OA
ENDBRANCH  32  39
ENDBRANCH  29  30
ENDBRANCH  27  29
ENDBRANCH   2  22
TORSDOF 8
