REMARK  Name = 
REMARK  8 active torsions:
REMARK  status: ('A' for Active; 'I' for Inactive)
REMARK    1  A    between atoms: C_2  and  C_3
REMARK    2  A    between atoms: C_5  and  O_6
REMARK    3  A    between atoms: O_6  and  C_7
REMARK    4  A    between atoms: C_10  and  C_11
REMARK    5  A    between atoms: C_12  and  C_13
REMARK    6  A    between atoms: C_18  and  O_19
REMARK    7  A    between atoms: O_19  and  C_20
REMARK    8  A    between atoms: C_22  and  C_23
REMARK                            x       y       z     vdW  Elec       q    Type
REMARK                         _______ _______ _______ _____ _____    ______ ____
ROOT
ATOM      1  C   UNL     1      -0.416  -0.420  -1.079  0.00  0.00    +0.000 C 
ATOM      2  C   UNL     1      -0.627  -1.531  -0.411  0.00  0.00    +0.000 C 
ENDROOT
BRANCH   1   6
ATOM      3  C   UNL     1       3.477  -0.034  -0.193  0.00  0.00    +0.000 A 
ATOM      4  C   UNL     1       3.185  -0.686  -1.389  0.00  0.00    +0.000 A 
ATOM      5  C   UNL     1       1.869  -0.697  -1.835  0.00  0.00    +0.000 A 
ATOM      6  C   UNL     1       0.917   0.153  -1.293  0.00  0.00    +0.000 A 
ATOM      7  C   UNL     1       1.413   1.144  -0.454  0.00  0.00    +0.000 A 
ATOM      8  O   UNL     1       0.481   1.940   0.216  0.00  0.00    +0.000 OA
ATOM      9  C   UNL     1       2.662   1.027   0.149  0.00  0.00    +0.000 A 
BRANCH   3  10
ATOM     10  O   UNL     1       4.795  -0.079   0.273  0.00  0.00    +0.000 OA
BRANCH  10  13
ATOM     11  C   UNL     1       7.303  -1.087  -0.972  0.00  0.00    +0.000 C 
ATOM     12  O   UNL     1       5.900  -1.018  -1.364  0.00  0.00    +0.000 OA
ATOM     13  C   UNL     1       5.727   0.402  -0.877  0.00  0.00    +0.000 C 
ATOM     14  C   UNL     1       7.063   0.755   0.162  0.00  0.00    +0.000 C 
ATOM     15  O   UNL     1       8.038  -0.396   0.236  0.00  0.00    +0.000 OA
ATOM     16  C   UNL     1       7.961   1.450  -1.097  0.00  0.00    +0.000 C 
ATOM     17  O   UNL     1       6.810   2.229  -1.683  0.00  0.00    +0.000 OA
ATOM     18  C   UNL     1       7.947   0.061  -2.107  0.00  0.00    +0.000 C 
ATOM     19  O   UNL     1       6.719   0.356  -2.913  0.00  0.00    +0.000 OA
BRANCH  11  21
ATOM     20  O   UNL     1       6.891  -0.038   0.385  0.00  0.00    +0.000 OA
ATOM     21  C   UNL     1       6.895  -0.084   0.191  0.00  0.00    +0.000 C 
ENDBRANCH  11  21
ENDBRANCH  10  13
ENDBRANCH   3  10
ENDBRANCH   1   6
BRANCH   2  22
ATOM     22  C   UNL     1      -1.483  -1.595   0.780  0.00  0.00    +0.000 A 
ATOM     23  C   UNL     1      -1.009  -1.172   2.019  0.00  0.00    +0.000 A 
ATOM     24  C   UNL     1      -1.756  -0.240   2.729  0.00  0.00    +0.000 A 
ATOM     25  O   UNL     1      -1.232   0.442   3.817  0.00  0.00    +0.000 OA
ATOM     26  C   UNL     1      -3.101  -0.069   2.467  0.00  0.00    +0.000 A 
ATOM     27  C   UNL     1      -3.681  -0.858   1.539  0.00  0.00    +0.000 A 
ATOM     28  C   UNL     1      -2.871  -1.639   0.728  0.00  0.00    +0.000 A 
BRANCH  27  29
ATOM     29  O   UNL     1      -4.911  -0.821   1.333  0.00  0.00    +0.000 OA
BRANCH  29  30
ATOM     30  C   UNL     1      -6.020   0.190   1.795  0.00  0.00    +0.000 C 
ATOM     31  O   UNL     1      -5.702   1.005   0.633  0.00  0.00    +0.000 OA
ATOM     32  C   UNL     1      -6.445   1.978  -0.108  0.00  0.00    +0.000 C 
ATOM     33  C   UNL     1      -7.878   1.083  -0.398  0.00  0.00    +0.000 C 
ATOM     34  O   UNL     1      -8.183   1.283   1.047  0.00  0.00    +0.000 OA
ATOM     35  C   UNL     1      -7.331  -0.532  -0.456  0.00  0.00    +0.000 C 
ATOM     36  O   UNL     1      -5.842  -0.441  -0.717  0.00  0.00    +0.000 OA
ATOM     37  C   UNL     1      -7.136  -1.016   1.185  0.00  0.00    +0.000 C 
ATOM     38  O   UNL     1      -8.408  -0.469   1.761  0.00  0.00    +0.000 OA
BRANCH  32  39
ATOM     39  C   UNL     1      -5.668   1.535  -1.509  0.00  0.00    +0.000 C 
ATOM     40  O   UNL     1      -6.354   1.853  -2.590  0.00  0.00    +0.000 OA
ENDBRANCH  32  39
ENDBRANCH  29  30
ENDBRANCH  27  29
ENDBRANCH   2  22
TORSDOF 8
