REMARK  Name = 
REMARK  8 active torsions:
REMARK  status: ('A' for Active; 'I' for Inactive)
REMARK    1  A    between atoms: C_2  and  C_3
REMARK    2  A    between atoms: C_5  and  O_6
REMARK    3  A    between atoms: O_6  and  C_7
REMARK    4  A    between atoms: C_10  and  C_11
REMARK    5  A    between atoms: C_12  and  C_13
REMARK    6  A    between atoms: C_18  and  O_19
REMARK    7  A    between atoms: O_19  and  C_20
REMARK    8  A    between atoms: C_22  and  C_23
REMARK                            x       y       z     vdW  Elec       q    Type
REMARK                         _______ _______ _______ _____ _____    ______ ____
ROOT
ATOM      1  C   UNL     1      -1.079   0.331  -1.238  0.00  0.00    +0.000 C 
ATOM      2  C   UNL     1      -0.135   1.237  -1.274  0.00  0.00    +0.000 C 
ENDROOT
BRANCH   1   6
ATOM      3  C   UNL     1      -3.283  -0.292   2.272  0.00  0.00    +0.000 A 
ATOM      4  C   UNL     1      -2.688   0.944   2.003  0.00  0.00    +0.000 A 
ATOM      5  C   UNL     1      -1.986   1.157   0.816  0.00  0.00    +0.000 A 
ATOM      6  C   UNL     1      -1.940   0.065  -0.070  0.00  0.00    +0.000 A 
ATOM      7  C   UNL     1      -1.636  -1.093   0.665  0.00  0.00    +0.000 A 
ATOM      8  O   UNL     1      -1.026  -2.196   0.072  0.00  0.00    +0.000 OA
ATOM      9  C   UNL     1      -2.618  -1.340   1.633  0.00  0.00    +0.000 A 
BRANCH   3  10
ATOM     10  O   UNL     1      -4.673  -0.350   2.520  0.00  0.00    +0.000 OA
BRANCH  10  13
ATOM     11  C   UNL     1      -6.089   0.815  -0.374  0.00  0.00    +0.000 C 
ATOM     12  O   UNL     1      -6.164   0.650   1.144  0.00  0.00    +0.000 OA
ATOM     13  C   UNL     1      -5.251  -0.590   1.079  0.00  0.00    +0.000 C 
ATOM     14  C   UNL     1      -6.462  -1.716   1.633  0.00  0.00    +0.000 C 
ATOM     15  O   UNL     1      -7.017  -0.833   2.711  0.00  0.00    +0.000 OA
ATOM     16  C   UNL     1      -7.593  -1.286   0.385  0.00  0.00    +0.000 C 
ATOM     17  O   UNL     1      -7.994   0.038   0.951  0.00  0.00    +0.000 OA
ATOM     18  C   UNL     1      -6.337  -0.867  -0.721  0.00  0.00    +0.000 C 
ATOM     19  O   UNL     1      -7.300  -0.647  -1.860  0.00  0.00    +0.000 OA
BRANCH  11  21
ATOM     20  O   UNL     1      -7.837   1.340  -0.974  0.00  0.00    +0.000 OA
ATOM     21  C   UNL     1      -7.637   1.324  -0.680  0.00  0.00    +0.000 C 
ENDBRANCH  11  21
ENDBRANCH  10  13
ENDBRANCH   3  10
ENDBRANCH   1   6
BRANCH   2  22
ATOM     22  C   UNL     1       1.313   1.028  -1.046  0.00  0.00    +0.000 A 
ATOM     23  C   UNL     1       1.768   0.620   0.220  0.00  0.00    +0.000 A 
ATOM     24  C   UNL     1       2.335  -0.651   0.368  0.00  0.00    +0.000 A 
ATOM     25  O   UNL     1       2.469  -1.261   1.611  0.00  0.00    +0.000 OA
ATOM     26  C   UNL     1       3.194  -0.953  -0.692  0.00  0.00    +0.000 A 
ATOM     27  C   UNL     1       3.323  -0.107  -1.790  0.00  0.00    +0.000 A 
ATOM     28  C   UNL     1       2.164   0.618  -2.066  0.00  0.00    +0.000 A 
BRANCH  27  29
ATOM     29  O   UNL     1       4.567   0.255  -2.327  0.00  0.00    +0.000 OA
BRANCH  29  30
ATOM     30  C   UNL     1       5.479   0.737  -1.142  0.00  0.00    +0.000 C 
ATOM     31  O   UNL     1       6.166  -0.639  -1.082  0.00  0.00    +0.000 OA
ATOM     32  C   UNL     1       6.199  -0.264   0.381  0.00  0.00    +0.000 C 
ATOM     33  C   UNL     1       7.476   0.904   0.374  0.00  0.00    +0.000 C 
ATOM     34  O   UNL     1       6.580   2.124   0.238  0.00  0.00    +0.000 OA
ATOM     35  C   UNL     1       8.088   0.885  -1.232  0.00  0.00    +0.000 C 
ATOM     36  O   UNL     1       8.079  -0.625  -1.429  0.00  0.00    +0.000 OA
ATOM     37  C   UNL     1       6.727   1.242  -2.221  0.00  0.00    +0.000 C 
ATOM     38  O   UNL     1       6.686   2.704  -1.836  0.00  0.00    +0.000 OA
BRANCH  32  39
ATOM     39  C   UNL     1       7.250  -1.481   0.813  0.00  0.00    +0.000 C 
ATOM     40  O   UNL     1       6.885  -1.685   2.163  0.00  0.00    +0.000 OA
ENDBRANCH  32  39
ENDBRANCH  29  30
ENDBRANCH  27  29
ENDBRANCH   2  22
TORSDOF 8
