REMARK  Name = 
REMARK  6 active torsions:
REMARK  status: ('A' for Active; 'I' for Inactive)
REMARK    1  A    between atoms: O_2  and  C_3
REMARK    2  A    between atoms: C_6  and  C_7
REMARK    3  A    between atoms: C_11  and  O_12
REMARK    4  A    between atoms: C_14  and  O_15
REMARK    5  A    between atoms: C_19  and  C_20
REMARK    6  A    between atoms: C_25  and  O_26
REMARK                            x       y       z     vdW  Elec       q    Type
REMARK                         _______ _______ _______ _____ _____    ______ ____
ROOT
ATOM      1  C   UNL     1      -0.935   0.751  -0.294  0.00  0.00    +0.000 C 
ATOM      2  C   UNL     1      -0.193  -0.161  -0.927  0.00  0.00    +0.000 C 
ATOM      3  C   UNL     1       1.246  -0.092  -0.685  0.00  0.00    +0.000 A 
ATOM      4  C   UNL     1       2.077  -1.118  -1.124  0.00  0.00    +0.000 A 
ATOM      5  C   UNL     1       3.204  -1.461  -0.384  0.00  0.00    +0.000 A 
ATOM      6  C   UNL     1       3.344  -0.950   0.904  0.00  0.00    +0.000 A 
ATOM      7  C   UNL     1       2.710   0.277   1.086  0.00  0.00    +0.000 A 
ATOM      8  C   UNL     1       1.861   0.815   0.111  0.00  0.00    +0.000 A 
ATOM      9  C   UNL     1       0.893   1.962   0.796  0.00  0.00    +0.000 C 
ATOM     10  O   UNL     1      -0.213   1.950  -0.330  0.00  0.00    +0.000 OA
ENDROOT
BRANCH   1  14
ATOM     11  C   UNL     1      -4.519  -0.936   0.841  0.00  0.00    +0.000 A 
ATOM     12  C   UNL     1      -3.832  -0.140   1.750  0.00  0.00    +0.000 A 
ATOM     13  C   UNL     1      -2.929   0.754   1.216  0.00  0.00    +0.000 A 
ATOM     14  C   UNL     1      -2.345   0.595  -0.036  0.00  0.00    +0.000 A 
ATOM     15  C   UNL     1      -3.158  -0.086  -0.939  0.00  0.00    +0.000 A 
ATOM     16  C   UNL     1      -4.317  -0.726  -0.518  0.00  0.00    +0.000 A 
BRANCH  11  18
ATOM     17  C   UNL     1      -4.281  -3.305   1.339  0.00  0.00    +0.000 C 
ATOM     18  O   UNL     1      -5.033  -2.122   1.348  0.00  0.00    +0.000 OA
ENDBRANCH  11  18
BRANCH  15  19
ATOM     19  O   UNL     1      -2.803  -0.047  -2.285  0.00  0.00    +0.000 OA
ATOM     20  C   UNL     1      -3.293  -0.989  -3.232  0.00  0.00    +0.000 C 
ENDBRANCH  15  19
ENDBRANCH   1  14
BRANCH   9  21
ATOM     21  C   UNL     1       1.712   3.200   0.007  0.00  0.00    +0.000 C 
ATOM     22 CL   UNL     1       0.507   4.502   0.034  0.00  0.00    +0.000 Cl
ATOM     23 CL   UNL     1       3.129   3.526   0.954  0.00  0.00    +0.000 Cl
ATOM     24 CL   UNL     1       1.937   2.686  -1.627  0.00  0.00    +0.000 Cl
ENDBRANCH   9  21
BRANCH   5  25
ATOM     25  O   UNL     1       4.111  -2.418  -0.763  0.00  0.00    +0.000 OA
ATOM     26  C   UNL     1       4.620  -2.493  -2.092  0.00  0.00    +0.000 C 
ENDBRANCH   5  25
BRANCH   6  27
ATOM     27  O   UNL     1       3.738  -1.760   1.974  0.00  0.00    +0.000 OA
ATOM     28  C   UNL     1       2.763  -2.213   2.877  0.00  0.00    +0.000 C 
ENDBRANCH   6  27
TORSDOF 6
