REMARK  Name = 
REMARK  5 active torsions:
REMARK  status: ('A' for Active; 'I' for Inactive)
REMARK    1  A    between atoms: C_2  and  C_3
REMARK    2  A    between atoms: C_5  and  O_6
REMARK    3  A    between atoms: O_6  and  C_7
REMARK    4  A    between atoms: C_12  and  C_13
REMARK    5  A    between atoms: C_14  and  C_15
REMARK                            x       y       z     vdW  Elec       q    Type
REMARK                         _______ _______ _______ _____ _____    ______ ____
ROOT
ATOM      1  C   UNL     1      -1.071  -0.369  -0.458  0.00  0.00    +0.000 A 
ATOM      2  C   UNL     1      -0.887   0.996  -0.268  0.00  0.00    +0.000 A 
ATOM      3  C   UNL     1       0.350   1.610  -0.360  0.00  0.00    +0.000 A 
ATOM      4  O   UNL     1       0.605   2.870   0.193  0.00  0.00    +0.000 OA
ATOM      5  C   UNL     1       1.286   0.939  -1.126  0.00  0.00    +0.000 A 
ATOM      6  C   UNL     1       1.230  -0.446  -1.249  0.00  0.00    +0.000 A 
ATOM      7  C   UNL     1       0.018  -1.065  -0.972  0.00  0.00    +0.000 A 
ENDROOT
BRANCH   6   8
ATOM      8  C   UNL     1       2.488  -1.203  -1.329  0.00  0.00    +0.000 C 
ATOM      9  C   UNL     1       3.109  -1.700  -0.288  0.00  0.00    +0.000 C 
BRANCH   9  10
ATOM     10  C   UNL     1       4.505  -1.401   0.062  0.00  0.00    +0.000 A 
ATOM     11  C   UNL     1       5.447  -1.390  -0.952  0.00  0.00    +0.000 A 
ATOM     12  C   UNL     1       6.521  -0.510  -0.878  0.00  0.00    +0.000 A 
ATOM     13  C   UNL     1       6.585   0.481   0.094  0.00  0.00    +0.000 A 
ATOM     14  O   UNL     1       7.675   1.321   0.081  0.00  0.00    +0.000 OA
ATOM     15  C   UNL     1       5.754   0.333   1.195  0.00  0.00    +0.000 A 
ATOM     16  C   UNL     1       4.690  -0.541   1.105  0.00  0.00    +0.000 A 
ATOM     17  O   UNL     1       3.766  -0.479   2.151  0.00  0.00    +0.000 OA
ENDBRANCH   9  10
ENDBRANCH   6   8
BRANCH   1  18
ATOM     18  O   UNL     1      -1.922  -0.983   0.445  0.00  0.00    +0.000 OA
BRANCH  18  21
ATOM     19  C   UNL     1      -4.589  -0.121  -1.297  0.00  0.00    +0.000 C 
ATOM     20  O   UNL     1      -3.514   0.370  -0.375  0.00  0.00    +0.000 OA
ATOM     21  C   UNL     1      -3.407  -1.080   0.024  0.00  0.00    +0.000 C 
ATOM     22  C   UNL     1      -3.993  -0.759   1.599  0.00  0.00    +0.000 C 
ATOM     23  O   UNL     1      -3.070   0.385   1.928  0.00  0.00    +0.000 OA
ATOM     24  C   UNL     1      -5.340   0.228   1.271  0.00  0.00    +0.000 C 
ATOM     25  O   UNL     1      -4.688   1.489   0.784  0.00  0.00    +0.000 OA
ATOM     26  C   UNL     1      -5.886  -0.376  -0.219  0.00  0.00    +0.000 C 
ATOM     27  O   UNL     1      -5.599  -1.824   0.096  0.00  0.00    +0.000 OA
BRANCH  19  29
ATOM     28  O   UNL     1      -4.955   1.827  -1.819  0.00  0.00    +0.000 OA
ATOM     29  C   UNL     1      -5.110   1.399  -1.652  0.00  0.00    +0.000 C 
ENDBRANCH  19  29
ENDBRANCH  18  21
ENDBRANCH   1  18
TORSDOF 5
