REMARK  Name = 
REMARK  5 active torsions:
REMARK  status: ('A' for Active; 'I' for Inactive)
REMARK    1  A    between atoms: C_2  and  C_3
REMARK    2  A    between atoms: C_5  and  O_6
REMARK    3  A    between atoms: O_6  and  C_7
REMARK    4  A    between atoms: C_12  and  C_13
REMARK    5  A    between atoms: C_14  and  C_15
REMARK                            x       y       z     vdW  Elec       q    Type
REMARK                         _______ _______ _______ _____ _____    ______ ____
ROOT
ATOM      1  C   UNL     1      -1.299  -0.571  -1.213  0.00  0.00    +0.000 A 
ATOM      2  C   UNL     1      -1.244  -1.845  -0.700  0.00  0.00    +0.000 A 
ATOM      3  C   UNL     1      -0.412  -2.215   0.344  0.00  0.00    +0.000 A 
ATOM      4  O   UNL     1      -0.746  -3.163   1.291  0.00  0.00    +0.000 OA
ATOM      5  C   UNL     1       0.469  -1.217   0.749  0.00  0.00    +0.000 A 
ATOM      6  C   UNL     1       0.770  -0.132  -0.060  0.00  0.00    +0.000 A 
ATOM      7  C   UNL     1      -0.200   0.242  -0.960  0.00  0.00    +0.000 A 
ENDROOT
BRANCH   6   8
ATOM      8  C   UNL     1       2.102   0.483  -0.058  0.00  0.00    +0.000 C 
ATOM      9  C   UNL     1       3.090  -0.387  -0.075  0.00  0.00    +0.000 C 
BRANCH   9  10
ATOM     10  C   UNL     1       4.492  -0.061  -0.127  0.00  0.00    +0.000 A 
ATOM     11  C   UNL     1       5.182  -0.436  -1.239  0.00  0.00    +0.000 A 
ATOM     12  C   UNL     1       6.423   0.135  -1.474  0.00  0.00    +0.000 A 
ATOM     13  C   UNL     1       6.968   0.927  -0.483  0.00  0.00    +0.000 A 
ATOM     14  O   UNL     1       8.130   1.597  -0.781  0.00  0.00    +0.000 OA
ATOM     15  C   UNL     1       6.350   1.051   0.757  0.00  0.00    +0.000 A 
ATOM     16  C   UNL     1       5.021   0.669   0.906  0.00  0.00    +0.000 A 
ATOM     17  O   UNL     1       4.253   1.165   1.955  0.00  0.00    +0.000 OA
ENDBRANCH   9  10
ENDBRANCH   6   8
BRANCH   1  18
ATOM     18  O   UNL     1      -2.472  -0.015  -1.747  0.00  0.00    +0.000 OA
BRANCH  18  21
ATOM     19  C   UNL     1      -3.317   0.472   1.105  0.00  0.00    +0.000 C 
ATOM     20  O   UNL     1      -3.653  -0.591   0.068  0.00  0.00    +0.000 OA
ATOM     21  C   UNL     1      -3.120   0.744  -0.528  0.00  0.00    +0.000 C 
ATOM     22  C   UNL     1      -4.588   1.102  -1.366  0.00  0.00    +0.000 C 
ATOM     23  O   UNL     1      -4.531   2.543  -0.897  0.00  0.00    +0.000 OA
ATOM     24  C   UNL     1      -5.748   0.709  -0.154  0.00  0.00    +0.000 C 
ATOM     25  O   UNL     1      -5.554  -0.801  -0.174  0.00  0.00    +0.000 OA
ATOM     26  C   UNL     1      -4.918   1.087   1.311  0.00  0.00    +0.000 C 
ATOM     27  O   UNL     1      -5.476  -0.161   1.995  0.00  0.00    +0.000 OA
BRANCH  19  29
ATOM     28  O   UNL     1      -2.638  -0.750   2.494  0.00  0.00    +0.000 OA
ATOM     29  C   UNL     1      -3.335  -0.581   2.399  0.00  0.00    +0.000 C 
ENDBRANCH  19  29
ENDBRANCH  18  21
ENDBRANCH   1  18
TORSDOF 5
