REMARK  Name = 
REMARK  5 active torsions:
REMARK  status: ('A' for Active; 'I' for Inactive)
REMARK    1  A    between atoms: C_2  and  C_3
REMARK    2  A    between atoms: C_5  and  O_6
REMARK    3  A    between atoms: O_6  and  C_7
REMARK    4  A    between atoms: C_12  and  C_13
REMARK    5  A    between atoms: C_14  and  C_15
REMARK                            x       y       z     vdW  Elec       q    Type
REMARK                         _______ _______ _______ _____ _____    ______ ____
ROOT
ATOM      1  C   UNL     1      -0.678   0.253  -0.327  0.00  0.00    +0.000 A 
ATOM      2  C   UNL     1      -0.886  -1.074  -0.021  0.00  0.00    +0.000 A 
ATOM      3  C   UNL     1      -0.251  -1.708   1.042  0.00  0.00    +0.000 A 
ATOM      4  O   UNL     1      -0.968  -2.629   1.812  0.00  0.00    +0.000 OA
ATOM      5  C   UNL     1       0.700  -0.962   1.710  0.00  0.00    +0.000 A 
ATOM      6  C   UNL     1       0.983   0.357   1.405  0.00  0.00    +0.000 A 
ATOM      7  C   UNL     1       0.416   0.862   0.240  0.00  0.00    +0.000 A 
ENDROOT
BRANCH   6   8
ATOM      8  C   UNL     1       2.352   0.824   1.669  0.00  0.00    +0.000 C 
ATOM      9  C   UNL     1       3.391   0.026   1.721  0.00  0.00    +0.000 C 
BRANCH   9  10
ATOM     10  C   UNL     1       4.642   0.257   1.004  0.00  0.00    +0.000 A 
ATOM     11  C   UNL     1       4.763   1.134  -0.053  0.00  0.00    +0.000 A 
ATOM     12  C   UNL     1       5.522   0.742  -1.150  0.00  0.00    +0.000 A 
ATOM     13  C   UNL     1       6.458  -0.273  -1.020  0.00  0.00    +0.000 A 
ATOM     14  O   UNL     1       6.993  -0.916  -2.122  0.00  0.00    +0.000 OA
ATOM     15  C   UNL     1       6.648  -0.774   0.263  0.00  0.00    +0.000 A 
ATOM     16  C   UNL     1       5.720  -0.561   1.271  0.00  0.00    +0.000 A 
ATOM     17  O   UNL     1       5.929  -0.972   2.582  0.00  0.00    +0.000 OA
ENDBRANCH   9  10
ENDBRANCH   6   8
BRANCH   1  18
ATOM     18  O   UNL     1      -1.565   1.035  -1.045  0.00  0.00    +0.000 OA
BRANCH  18  21
ATOM     19  C   UNL     1      -4.197  -0.821   0.205  0.00  0.00    +0.000 C 
ATOM     20  O   UNL     1      -3.298  -0.410  -0.977  0.00  0.00    +0.000 OA
ATOM     21  C   UNL     1      -2.958   0.947  -0.293  0.00  0.00    +0.000 C 
ATOM     22  C   UNL     1      -3.761   1.921  -1.528  0.00  0.00    +0.000 C 
ATOM     23  O   UNL     1      -3.230   1.141  -2.702  0.00  0.00    +0.000 OA
ATOM     24  C   UNL     1      -5.288   1.078  -1.390  0.00  0.00    +0.000 C 
ATOM     25  O   UNL     1      -4.841  -0.199  -2.057  0.00  0.00    +0.000 OA
ATOM     26  C   UNL     1      -5.027   0.718   0.291  0.00  0.00    +0.000 C 
ATOM     27  O   UNL     1      -6.416   0.116   0.416  0.00  0.00    +0.000 OA
BRANCH  19  29
ATOM     28  O   UNL     1      -5.759  -1.827  -0.302  0.00  0.00    +0.000 OA
ATOM     29  C   UNL     1      -5.393  -1.633  -0.642  0.00  0.00    +0.000 C 
ENDBRANCH  19  29
ENDBRANCH  18  21
ENDBRANCH   1  18
TORSDOF 5
