REMARK  Name = 
REMARK  5 active torsions:
REMARK  status: ('A' for Active; 'I' for Inactive)
REMARK    1  A    between atoms: C_2  and  C_3
REMARK    2  A    between atoms: C_5  and  O_6
REMARK    3  A    between atoms: O_6  and  C_7
REMARK    4  A    between atoms: C_13  and  C_14
REMARK    5  A    between atoms: C_15  and  C_16
REMARK                            x       y       z     vdW  Elec       q    Type
REMARK                         _______ _______ _______ _____ _____    ______ ____
ROOT
ATOM      1  C   UNL     1      -0.879  -0.800   0.172  0.00  0.00    +0.000 A 
ATOM      2  C   UNL     1      -1.196  -1.951  -0.532  0.00  0.00    +0.000 A 
ATOM      3  C   UNL     1      -0.355  -3.056  -0.591  0.00  0.00    +0.000 A 
ATOM      4  O   UNL     1      -0.825  -4.232  -1.132  0.00  0.00    +0.000 OA
ATOM      5  C   UNL     1       0.556  -3.136   0.457  0.00  0.00    +0.000 A 
ATOM      6  C   UNL     1       0.927  -1.978   1.119  0.00  0.00    +0.000 A 
ATOM      7  C   UNL     1       0.350  -0.760   0.774  0.00  0.00    +0.000 A 
ENDROOT
BRANCH   7   8
ATOM      8  C   UNL     1       1.111   0.482   0.655  0.00  0.00    +0.000 C 
ATOM      9  C   UNL     1       2.124   0.685  -0.135  0.00  0.00    +0.000 C 
BRANCH   9  10
ATOM     10  C   UNL     1       3.507   0.904   0.193  0.00  0.00    +0.000 A 
ATOM     11  C   UNL     1       4.057   2.047   0.689  0.00  0.00    +0.000 A 
ATOM     12  C   UNL     1       5.433   2.214   0.600  0.00  0.00    +0.000 A 
ATOM     13  O   UNL     1       6.006   3.472   0.383  0.00  0.00    +0.000 OA
ATOM     14  C   UNL     1       6.256   1.142   0.277  0.00  0.00    +0.000 A 
ATOM     15  C   UNL     1       5.705  -0.133   0.238  0.00  0.00    +0.000 A 
ATOM     16  O   UNL     1       6.488  -1.256  -0.042  0.00  0.00    +0.000 OA
ATOM     17  C   UNL     1       4.348  -0.205   0.136  0.00  0.00    +0.000 A 
ENDBRANCH   9  10
ENDBRANCH   7   8
BRANCH   1  18
ATOM     18  O   UNL     1      -1.794   0.195   0.508  0.00  0.00    +0.000 OA
BRANCH  18  21
ATOM     19  C   UNL     1      -4.505   0.096  -0.346  0.00  0.00    +0.000 C 
ATOM     20  O   UNL     1      -3.535  -1.062  -0.119  0.00  0.00    +0.000 OA
ATOM     21  C   UNL     1      -2.887  -0.663   1.248  0.00  0.00    +0.000 C 
ATOM     22  C   UNL     1      -4.102   0.554   1.608  0.00  0.00    +0.000 C 
ATOM     23  O   UNL     1      -3.488   0.817   2.976  0.00  0.00    +0.000 OA
ATOM     24  C   UNL     1      -3.461   1.994   0.890  0.00  0.00    +0.000 C 
ATOM     25  O   UNL     1      -2.054   1.860   1.441  0.00  0.00    +0.000 OA
ATOM     26  C   UNL     1      -3.227   1.250  -0.659  0.00  0.00    +0.000 C 
ATOM     27  O   UNL     1      -4.204   2.190  -1.315  0.00  0.00    +0.000 OA
BRANCH  19  29
ATOM     28  O   UNL     1      -5.758  -0.407  -2.152  0.00  0.00    +0.000 OA
ATOM     29  C   UNL     1      -4.596  -0.264  -1.970  0.00  0.00    +0.000 C 
ENDBRANCH  19  29
ENDBRANCH  18  21
ENDBRANCH   1  18
TORSDOF 5
