REMARK  Name = 
REMARK  5 active torsions:
REMARK  status: ('A' for Active; 'I' for Inactive)
REMARK    1  A    between atoms: C_2  and  C_3
REMARK    2  A    between atoms: C_5  and  O_6
REMARK    3  A    between atoms: O_6  and  C_7
REMARK    4  A    between atoms: C_13  and  C_14
REMARK    5  A    between atoms: C_15  and  C_16
REMARK                            x       y       z     vdW  Elec       q    Type
REMARK                         _______ _______ _______ _____ _____    ______ ____
ROOT
ATOM      1  C   UNL     1      -0.595  -0.497   0.248  0.00  0.00    +0.000 A 
ATOM      2  C   UNL     1      -1.223  -0.336  -0.923  0.00  0.00    +0.000 A 
ATOM      3  C   UNL     1      -0.948   0.432  -1.977  0.00  0.00    +0.000 A 
ATOM      4  O   UNL     1      -1.823   1.354  -2.484  0.00  0.00    +0.000 OA
ATOM      5  C   UNL     1       0.413   0.354  -2.231  0.00  0.00    +0.000 A 
ATOM      6  C   UNL     1       1.201  -0.207  -1.225  0.00  0.00    +0.000 A 
ATOM      7  C   UNL     1       0.732  -0.288   0.094  0.00  0.00    +0.000 A 
ENDROOT
BRANCH   7   8
ATOM      8  C   UNL     1       1.620  -0.550   1.228  0.00  0.00    +0.000 C 
ATOM      9  C   UNL     1       2.600   0.173   1.636  0.00  0.00    +0.000 C 
BRANCH   9  10
ATOM     10  C   UNL     1       3.994   0.261   1.232  0.00  0.00    +0.000 A 
ATOM     11  C   UNL     1       4.332   1.489   0.658  0.00  0.00    +0.000 A 
ATOM     12  C   UNL     1       5.398   1.691  -0.164  0.00  0.00    +0.000 A 
ATOM     13  O   UNL     1       5.607   2.954  -0.730  0.00  0.00    +0.000 OA
ATOM     14  C   UNL     1       6.097   0.601  -0.620  0.00  0.00    +0.000 A 
ATOM     15  C   UNL     1       5.598  -0.658  -0.355  0.00  0.00    +0.000 A 
ATOM     16  O   UNL     1       6.425  -1.716  -0.745  0.00  0.00    +0.000 OA
ATOM     17  C   UNL     1       4.702  -0.802   0.671  0.00  0.00    +0.000 A 
ENDBRANCH   9  10
ENDBRANCH   7   8
BRANCH   1  18
ATOM     18  O   UNL     1      -1.176  -1.103   1.294  0.00  0.00    +0.000 OA
BRANCH  18  21
ATOM     19  C   UNL     1      -4.542  -1.464   0.182  0.00  0.00    +0.000 C 
ATOM     20  O   UNL     1      -3.071  -1.260  -0.030  0.00  0.00    +0.000 OA
ATOM     21  C   UNL     1      -2.719  -0.999   1.435  0.00  0.00    +0.000 C 
ATOM     22  C   UNL     1      -2.793   0.685   1.047  0.00  0.00    +0.000 C 
ATOM     23  O   UNL     1      -2.445   1.028   2.462  0.00  0.00    +0.000 OA
ATOM     24  C   UNL     1      -4.449   0.721   1.446  0.00  0.00    +0.000 C 
ATOM     25  O   UNL     1      -4.555   2.143   0.974  0.00  0.00    +0.000 OA
ATOM     26  C   UNL     1      -5.084   0.157  -0.041  0.00  0.00    +0.000 C 
ATOM     27  O   UNL     1      -4.023   0.663  -0.952  0.00  0.00    +0.000 OA
BRANCH  19  29
ATOM     28  O   UNL     1      -4.500  -3.022  -1.408  0.00  0.00    +0.000 OA
ATOM     29  C   UNL     1      -4.776  -1.803  -1.409  0.00  0.00    +0.000 C 
ENDBRANCH  19  29
ENDBRANCH  18  21
ENDBRANCH   1  18
TORSDOF 5
