REMARK  Name = 
REMARK  5 active torsions:
REMARK  status: ('A' for Active; 'I' for Inactive)
REMARK    1  A    between atoms: C_2  and  C_3
REMARK    2  A    between atoms: C_5  and  O_6
REMARK    3  A    between atoms: O_6  and  C_7
REMARK    4  A    between atoms: C_13  and  C_14
REMARK    5  A    between atoms: C_15  and  C_16
REMARK                            x       y       z     vdW  Elec       q    Type
REMARK                         _______ _______ _______ _____ _____    ______ ____
ROOT
ATOM      1  C   UNL     1       0.866  -2.023   0.489  0.00  0.00    +0.000 A 
ATOM      2  C   UNL     1       1.016  -3.374   0.816  0.00  0.00    +0.000 A 
ATOM      3  C   UNL     1       0.255  -4.322   0.139  0.00  0.00    +0.000 A 
ATOM      4  O   UNL     1       0.491  -5.660   0.393  0.00  0.00    +0.000 OA
ATOM      5  C   UNL     1      -0.774  -3.902  -0.696  0.00  0.00    +0.000 A 
ATOM      6  C   UNL     1      -1.264  -2.647  -0.431  0.00  0.00    +0.000 A 
ATOM      7  C   UNL     1      -0.506  -1.747   0.319  0.00  0.00    +0.000 A 
ENDROOT
BRANCH   7   8
ATOM      8  C   UNL     1      -1.120  -0.485   0.626  0.00  0.00    +0.000 C 
ATOM      9  C   UNL     1      -2.177  -0.182   1.284  0.00  0.00    +0.000 C 
BRANCH   9  10
ATOM     10  C   UNL     1      -3.277   0.654   0.786  0.00  0.00    +0.000 A 
ATOM     11  C   UNL     1      -4.385  -0.036   0.336  0.00  0.00    +0.000 A 
ATOM     12  C   UNL     1      -5.256   0.544  -0.549  0.00  0.00    +0.000 A 
ATOM     13  O   UNL     1      -6.317  -0.114  -1.137  0.00  0.00    +0.000 OA
ATOM     14  C   UNL     1      -5.185   1.910  -0.726  0.00  0.00    +0.000 A 
ATOM     15  C   UNL     1      -4.039   2.592  -0.379  0.00  0.00    +0.000 A 
ATOM     16  O   UNL     1      -3.992   3.965  -0.603  0.00  0.00    +0.000 OA
ATOM     17  C   UNL     1      -3.141   1.975   0.464  0.00  0.00    +0.000 A 
ENDBRANCH   9  10
ENDBRANCH   7   8
BRANCH   1  18
ATOM     18  O   UNL     1       1.544  -1.000   0.839  0.00  0.00    +0.000 OA
BRANCH  18  21
ATOM     19  C   UNL     1       3.776   1.474   1.453  0.00  0.00    +0.000 C 
ATOM     20  O   UNL     1       2.499   0.883   0.928  0.00  0.00    +0.000 OA
ATOM     21  C   UNL     1       2.990  -0.534   0.693  0.00  0.00    +0.000 C 
ATOM     22  C   UNL     1       3.036  -0.477  -1.035  0.00  0.00    +0.000 C 
ATOM     23  O   UNL     1       1.624  -0.076  -1.288  0.00  0.00    +0.000 OA
ATOM     24  C   UNL     1       3.683   1.111  -1.214  0.00  0.00    +0.000 C 
ATOM     25  O   UNL     1       2.537   1.906  -0.709  0.00  0.00    +0.000 OA
ATOM     26  C   UNL     1       4.729   0.979   0.122  0.00  0.00    +0.000 C 
ATOM     27  O   UNL     1       5.332   2.328  -0.178  0.00  0.00    +0.000 OA
BRANCH  19  29
ATOM     28  O   UNL     1       3.571   3.232   1.025  0.00  0.00    +0.000 OA
ATOM     29  C   UNL     1       3.484   3.027   1.014  0.00  0.00    +0.000 C 
ENDBRANCH  19  29
ENDBRANCH  18  21
ENDBRANCH   1  18
TORSDOF 5
