REMARK  Name = 
REMARK  7 active torsions:
REMARK  status: ('A' for Active; 'I' for Inactive)
REMARK    1  A    between atoms: O_2  and  C_3
REMARK    2  A    between atoms: C_6  and  C_7
REMARK    3  A    between atoms: C_8  and  C_9
REMARK    4  A    between atoms: C_8  and  C_11
REMARK    5  A    between atoms: C_14  and  O_15
REMARK    6  A    between atoms: C_17  and  O_18
REMARK    7  A    between atoms: C_21  and  O_22
REMARK                            x       y       z     vdW  Elec       q    Type
REMARK                         _______ _______ _______ _____ _____    ______ ____
ROOT
ATOM      1  C   UNL     1      -0.756   0.681  -0.232  0.00  0.00    +0.000 C 
ATOM      2  C   UNL     1       0.226  -0.190  -0.473  0.00  0.00    +0.000 C 
ENDROOT
BRANCH   1   6
ATOM      3  C   UNL     1      -4.615  -0.773   0.233  0.00  0.00    +0.000 A 
ATOM      4  C   UNL     1      -3.947  -0.263   1.340  0.00  0.00    +0.000 A 
ATOM      5  C   UNL     1      -2.603   0.063   1.232  0.00  0.00    +0.000 A 
ATOM      6  C   UNL     1      -2.091   0.152  -0.048  0.00  0.00    +0.000 A 
ATOM      7  C   UNL     1      -2.917   0.134  -1.158  0.00  0.00    +0.000 A 
ATOM      8  C   UNL     1      -4.109  -0.542  -1.040  0.00  0.00    +0.000 A 
BRANCH   3  10
ATOM      9  C   UNL     1      -6.187  -2.058   1.593  0.00  0.00    +0.000 C 
ATOM     10  O   UNL     1      -5.849  -1.383   0.409  0.00  0.00    +0.000 OA
ENDBRANCH   3  10
BRANCH   7  11
ATOM     11  O   UNL     1      -2.558   0.842  -2.306  0.00  0.00    +0.000 OA
ATOM     12  C   UNL     1      -3.038   2.176  -2.375  0.00  0.00    +0.000 C 
ENDBRANCH   7  11
ENDBRANCH   1   6
BRANCH   2  13
ATOM     13  C   UNL     1       1.573   0.400  -0.447  0.00  0.00    +0.000 A 
ATOM     14  C   UNL     1       2.216   0.825  -1.589  0.00  0.00    +0.000 A 
ATOM     15  C   UNL     1       3.468   1.397  -1.403  0.00  0.00    +0.000 A 
ATOM     16  C   UNL     1       4.194   1.157  -0.244  0.00  0.00    +0.000 A 
ATOM     17  C   UNL     1       3.664   0.390   0.772  0.00  0.00    +0.000 A 
ATOM     18  C   UNL     1       2.336   0.044   0.660  0.00  0.00    +0.000 A 
BRANCH  16  19
ATOM     19  O   UNL     1       5.399   1.800  -0.034  0.00  0.00    +0.000 OA
ATOM     20  C   UNL     1       6.292   1.291   0.941  0.00  0.00    +0.000 C 
ENDBRANCH  16  19
BRANCH  17  21
ATOM     21  O   UNL     1       4.549  -0.369   1.538  0.00  0.00    +0.000 OA
ATOM     22  C   UNL     1       4.646  -1.748   1.207  0.00  0.00    +0.000 C 
ENDBRANCH  17  21
ENDBRANCH   2  13
BRANCH   2  23
ATOM     23  C   UNL     1       0.026  -1.536   0.017  0.00  0.00    +0.000 C 
ATOM     24  N   UNL     1       0.082  -2.491   0.688  0.00  0.00    +0.000 NA
ENDBRANCH   2  23
TORSDOF 7
