REMARK  Name = 
REMARK  9 active torsions:
REMARK  status: ('A' for Active; 'I' for Inactive)
REMARK    1  A    between atoms: C_2  and  O_3
REMARK    2  A    between atoms: O_3  and  C_4
REMARK    3  A    between atoms: C_7  and  C_8
REMARK    4  A    between atoms: C_9  and  C_10
REMARK    5  A    between atoms: C_9  and  C_12
REMARK    6  A    between atoms: C_15  and  O_16
REMARK    7  A    between atoms: C_18  and  O_19
REMARK    8  A    between atoms: C_22  and  O_23
REMARK    9  A    between atoms: O_23  and  C_24
REMARK                            x       y       z     vdW  Elec       q    Type
REMARK                         _______ _______ _______ _____ _____    ______ ____
ROOT
ATOM      1  C   UNL     1      -0.274  -0.559  -1.118  0.00  0.00    +0.000 C 
ATOM      2  C   UNL     1       0.614   0.140  -0.446  0.00  0.00    +0.000 C 
ENDROOT
BRANCH   1   6
ATOM      3  C   UNL     1      -4.289   0.242  -0.059  0.00  0.00    +0.000 A 
ATOM      4  C   UNL     1      -3.924   0.054  -1.387  0.00  0.00    +0.000 A 
ATOM      5  C   UNL     1      -2.663  -0.325  -1.772  0.00  0.00    +0.000 A 
ATOM      6  C   UNL     1      -1.698  -0.435  -0.780  0.00  0.00    +0.000 A 
ATOM      7  C   UNL     1      -2.122  -0.696   0.517  0.00  0.00    +0.000 A 
ATOM      8  C   UNL     1      -3.405  -0.298   0.870  0.00  0.00    +0.000 A 
BRANCH   3   9
ATOM      9  O   UNL     1      -5.644   0.024   0.216  0.00  0.00    +0.000 OA
BRANCH   9  11
ATOM     10  C   UNL     1      -6.545   2.196  -0.388  0.00  0.00    +0.000 C 
ATOM     11  C   UNL     1      -6.504   1.074   0.641  0.00  0.00    +0.000 C 
ENDBRANCH   9  11
ENDBRANCH   3   9
BRANCH   7  12
ATOM     12  O   UNL     1      -1.362  -1.540   1.335  0.00  0.00    +0.000 OA
BRANCH  12  13
ATOM     13  C   UNL     1      -2.017  -2.655   1.889  0.00  0.00    +0.000 C 
ATOM     14  C   UNL     1      -2.409  -3.630   0.798  0.00  0.00    +0.000 C 
ENDBRANCH  12  13
ENDBRANCH   7  12
ENDBRANCH   1   6
BRANCH   2  15
ATOM     15  C   UNL     1       2.057  -0.132  -0.500  0.00  0.00    +0.000 A 
ATOM     16  C   UNL     1       2.563  -0.825   0.594  0.00  0.00    +0.000 A 
ATOM     17  C   UNL     1       3.939  -0.986   0.670  0.00  0.00    +0.000 A 
ATOM     18  C   UNL     1       4.772  -0.048   0.072  0.00  0.00    +0.000 A 
ATOM     19  C   UNL     1       4.208   0.962  -0.698  0.00  0.00    +0.000 A 
ATOM     20  C   UNL     1       2.841   0.928  -0.942  0.00  0.00    +0.000 A 
BRANCH  18  21
ATOM     21  O   UNL     1       6.106  -0.355  -0.213  0.00  0.00    +0.000 OA
ATOM     22  C   UNL     1       6.435  -1.600  -0.803  0.00  0.00    +0.000 C 
ENDBRANCH  18  21
BRANCH  19  23
ATOM     23  O   UNL     1       4.946   2.141  -0.795  0.00  0.00    +0.000 OA
ATOM     24  C   UNL     1       4.308   3.329  -0.354  0.00  0.00    +0.000 C 
ENDBRANCH  19  23
ENDBRANCH   2  15
BRANCH   2  25
ATOM     25  C   UNL     1       0.188   1.092   0.551  0.00  0.00    +0.000 C 
ATOM     26  N   UNL     1      -0.121   1.903   1.310  0.00  0.00    +0.000 NA
ENDBRANCH   2  25
TORSDOF 9
