REMARK  Name = 
REMARK  7 active torsions:
REMARK  status: ('A' for Active; 'I' for Inactive)
REMARK    1  A    between atoms: C_2  and  O_4
REMARK    2  A    between atoms: O_4  and  C_5
REMARK    3  A    between atoms: C_8  and  C_9
REMARK    4  A    between atoms: C_10  and  C_11
REMARK    5  A    between atoms: C_10  and  C_13
REMARK    6  A    between atoms: C_22  and  O_23
REMARK    7  A    between atoms: O_23  and  C_24
REMARK                            x       y       z     vdW  Elec       q    Type
REMARK                         _______ _______ _______ _____ _____    ______ ____
ROOT
ATOM      1  C   UNL     1      -3.093   0.382  -0.788  0.00  0.00    +0.000 A 
ATOM      2  C   UNL     1      -3.269   1.208   0.306  0.00  0.00    +0.000 A 
ATOM      3  C   UNL     1      -2.148   1.409   1.095  0.00  0.00    +0.000 A 
ATOM      4  C   UNL     1      -1.052   0.556   1.018  0.00  0.00    +0.000 A 
ATOM      5  C   UNL     1      -1.305  -0.665   0.425  0.00  0.00    +0.000 A 
ATOM      6  C   UNL     1      -2.212  -0.675  -0.627  0.00  0.00    +0.000 A 
ENDROOT
BRANCH   4   7
ATOM      7  C   UNL     1      -0.166   0.622   2.189  0.00  0.00    +0.000 C 
ATOM      8  C   UNL     1       1.048   1.117   1.947  0.00  0.00    +0.000 C 
BRANCH   8   9
ATOM      9  C   UNL     1       1.790   0.372   0.922  0.00  0.00    +0.000 A 
ATOM     10  C   UNL     1       2.724  -0.522   1.434  0.00  0.00    +0.000 A 
ATOM     11  C   UNL     1       3.722  -1.084   0.684  0.00  0.00    +0.000 A 
ATOM     12  C   UNL     1       3.687  -0.817  -0.679  0.00  0.00    +0.000 A 
ATOM     13  C   UNL     1       3.078   0.359  -1.094  0.00  0.00    +0.000 A 
ATOM     14  C   UNL     1       2.067   0.905  -0.323  0.00  0.00    +0.000 A 
ATOM     15  O   UNL     1       3.708   0.707  -2.292  0.00  0.00    +0.000 OA
ATOM     16  C   UNL     1       4.115  -0.533  -2.865  0.00  0.00    +0.000 C 
ATOM     17  O   UNL     1       4.279  -1.415  -1.774  0.00  0.00    +0.000 OA
ENDBRANCH   8   9
BRANCH   8  18
ATOM     18  C   UNL     1       1.737   1.952   2.905  0.00  0.00    +0.000 C 
ATOM     19  N   UNL     1       2.364   2.504   3.715  0.00  0.00    +0.000 NA
ENDBRANCH   8  18
ENDBRANCH   4   7
BRANCH   1  20
ATOM     20  O   UNL     1      -3.945   0.375  -1.878  0.00  0.00    +0.000 OA
BRANCH  20  22
ATOM     21  C   UNL     1      -5.751   1.137  -3.178  0.00  0.00    +0.000 C 
ATOM     22  C   UNL     1      -5.062   1.232  -1.846  0.00  0.00    +0.000 C 
ATOM     23  C   UNL     1      -4.720   2.649  -1.485  0.00  0.00    +0.000 C 
ENDBRANCH  20  22
ENDBRANCH   1  20
BRANCH   5  24
ATOM     24  O   UNL     1      -0.622  -1.831   0.780  0.00  0.00    +0.000 OA
BRANCH  24  25
ATOM     25  C   UNL     1      -0.477  -2.803  -0.217  0.00  0.00    +0.000 C 
ATOM     26  C   UNL     1      -1.429  -3.954  -0.104  0.00  0.00    +0.000 C 
ATOM     27  C   UNL     1       0.934  -3.187  -0.515  0.00  0.00    +0.000 C 
ENDBRANCH  24  25
ENDBRANCH   5  24
TORSDOF 7
