REMARK  Name = 
REMARK  5 active torsions:
REMARK  status: ('A' for Active; 'I' for Inactive)
REMARK    1  A    between atoms: O_2  and  C_3
REMARK    2  A    between atoms: C_5  and  O_6
REMARK    3  A    between atoms: C_8  and  C_9
REMARK    4  A    between atoms: C_10  and  C_11
REMARK    5  A    between atoms: C_10  and  C_13
REMARK                            x       y       z     vdW  Elec       q    Type
REMARK                         _______ _______ _______ _____ _____    ______ ____
ROOT
ATOM      1  C   UNL     1       0.339  -1.703   0.826  0.00  0.00    +0.000 C 
ATOM      2  C   UNL     1      -0.903  -1.543   0.368  0.00  0.00    +0.000 C 
ENDROOT
BRANCH   2   3
ATOM      3  C   UNL     1      -1.401  -0.163   0.390  0.00  0.00    +0.000 A 
ATOM      4  C   UNL     1      -1.013   0.747  -0.580  0.00  0.00    +0.000 A 
ATOM      5  C   UNL     1      -1.819   1.837  -0.849  0.00  0.00    +0.000 A 
ATOM      6  C   UNL     1      -3.090   1.936  -0.312  0.00  0.00    +0.000 A 
ATOM      7  C   UNL     1      -3.423   1.137   0.773  0.00  0.00    +0.000 A 
ATOM      8  C   UNL     1      -2.530   0.133   1.109  0.00  0.00    +0.000 A 
ATOM      9  O   UNL     1      -4.799   1.302   0.961  0.00  0.00    +0.000 OA
ATOM     10  C   UNL     1      -5.393   1.770  -0.250  0.00  0.00    +0.000 C 
ATOM     11  O   UNL     1      -4.283   2.470  -0.808  0.00  0.00    +0.000 OA
ENDBRANCH   2   3
BRANCH   1  15
ATOM     12  C   UNL     1       3.852   0.287  -0.307  0.00  0.00    +0.000 A 
ATOM     13  C   UNL     1       3.444  -0.888  -0.900  0.00  0.00    +0.000 A 
ATOM     14  C   UNL     1       2.157  -1.383  -0.731  0.00  0.00    +0.000 A 
ATOM     15  C   UNL     1       1.364  -0.816   0.259  0.00  0.00    +0.000 A 
ATOM     16  C   UNL     1       1.873   0.229   1.021  0.00  0.00    +0.000 A 
ATOM     17  C   UNL     1       3.055   0.842   0.688  0.00  0.00    +0.000 A 
ATOM     18 CL   UNL     1       3.426   2.502   1.145  0.00  0.00    +0.000 Cl
BRANCH  12  20
ATOM     19  C   UNL     1       5.660   1.939  -0.046  0.00  0.00    +0.000 C 
ATOM     20  O   UNL     1       5.195   0.652  -0.431  0.00  0.00    +0.000 OA
ENDBRANCH  12  20
BRANCH  14  21
ATOM     21  O   UNL     1       1.443  -1.922  -1.809  0.00  0.00    +0.000 OA
ATOM     22  C   UNL     1       1.370  -3.302  -2.069  0.00  0.00    +0.000 C 
ENDBRANCH  14  21
ENDBRANCH   1  15
BRANCH   2  23
ATOM     23  C   UNL     1      -1.817  -2.662   0.336  0.00  0.00    +0.000 C 
ATOM     24  N   UNL     1      -2.706  -3.399   0.508  0.00  0.00    +0.000 NA
ENDBRANCH   2  23
TORSDOF 5
