REMARK  Name = 
REMARK  6 active torsions:
REMARK  status: ('A' for Active; 'I' for Inactive)
REMARK    1  A    between atoms: O_2  and  C_3
REMARK    2  A    between atoms: C_6  and  C_7
REMARK    3  A    between atoms: C_11  and  O_12
REMARK    4  A    between atoms: C_14  and  O_15
REMARK    5  A    between atoms: C_19  and  C_20
REMARK    6  A    between atoms: C_25  and  O_26
REMARK                            x       y       z     vdW  Elec       q    Type
REMARK                         _______ _______ _______ _____ _____    ______ ____
ROOT
ATOM      1  C   UNL     1       0.897  -0.553   0.317  0.00  0.00    +0.000 C 
ATOM      2  C   UNL     1       0.307  -0.498  -0.881  0.00  0.00    +0.000 C 
ATOM      3  C   UNL     1      -1.159  -0.437  -0.932  0.00  0.00    +0.000 A 
ATOM      4  C   UNL     1      -1.896  -0.004  -1.995  0.00  0.00    +0.000 A 
ATOM      5  C   UNL     1      -3.170   0.489  -1.726  0.00  0.00    +0.000 A 
ATOM      6  C   UNL     1      -3.653   0.616  -0.426  0.00  0.00    +0.000 A 
ATOM      7  C   UNL     1      -3.023  -0.223   0.489  0.00  0.00    +0.000 A 
ATOM      8  C   UNL     1      -1.693  -0.448   0.359  0.00  0.00    +0.000 A 
ATOM      9  C   UNL     1      -1.090  -1.823   1.006  0.00  0.00    +0.000 C 
ATOM     10  O   UNL     1       0.226  -1.091   1.421  0.00  0.00    +0.000 OA
ENDROOT
BRANCH   1  14
ATOM     11  C   UNL     1       4.963   0.301   0.333  0.00  0.00    +0.000 A 
ATOM     12  C   UNL     1       4.316   0.030   1.533  0.00  0.00    +0.000 A 
ATOM     13  C   UNL     1       2.945  -0.063   1.607  0.00  0.00    +0.000 A 
ATOM     14  C   UNL     1       2.201   0.080   0.468  0.00  0.00    +0.000 A 
ATOM     15  C   UNL     1       2.847   0.609  -0.640  0.00  0.00    +0.000 A 
ATOM     16  C   UNL     1       4.222   0.595  -0.779  0.00  0.00    +0.000 A 
BRANCH  11  18
ATOM     17  C   UNL     1       7.013  -0.229  -0.808  0.00  0.00    +0.000 C 
ATOM     18  O   UNL     1       6.343   0.387   0.253  0.00  0.00    +0.000 OA
ENDBRANCH  11  18
BRANCH  15  19
ATOM     19  O   UNL     1       2.112   0.736  -1.796  0.00  0.00    +0.000 OA
ATOM     20  C   UNL     1       2.066   1.909  -2.588  0.00  0.00    +0.000 C 
ENDBRANCH  15  19
ENDBRANCH   1  14
BRANCH   9  21
ATOM     21  C   UNL     1      -1.784  -1.566   2.497  0.00  0.00    +0.000 C 
ATOM     22 CL   UNL     1      -3.416  -2.194   2.328  0.00  0.00    +0.000 Cl
ATOM     23 CL   UNL     1      -1.636   0.108   2.870  0.00  0.00    +0.000 Cl
ATOM     24 CL   UNL     1      -0.909  -2.660   3.591  0.00  0.00    +0.000 Cl
ENDBRANCH   9  21
BRANCH   5  25
ATOM     25  O   UNL     1      -3.795   1.164  -2.764  0.00  0.00    +0.000 OA
ATOM     26  C   UNL     1      -3.438   0.952  -4.103  0.00  0.00    +0.000 C 
ENDBRANCH   5  25
BRANCH   6  27
ATOM     27  O   UNL     1      -4.276   1.810  -0.093  0.00  0.00    +0.000 OA
ATOM     28  C   UNL     1      -5.522   2.002   0.460  0.00  0.00    +0.000 C 
ENDBRANCH   6  27
TORSDOF 6
