REMARK  Name = 
REMARK  5 active torsions:
REMARK  status: ('A' for Active; 'I' for Inactive)
REMARK    1  A    between atoms: O_2  and  C_3
REMARK    2  A    between atoms: C_6  and  C_7
REMARK    3  A    between atoms: C_8  and  C_9
REMARK    4  A    between atoms: C_8  and  C_11
REMARK    5  A    between atoms: C_20  and  O_21
REMARK                            x       y       z     vdW  Elec       q    Type
REMARK                         _______ _______ _______ _____ _____    ______ ____
ROOT
ATOM      1  C   UNL     1       0.816   1.138  -0.801  0.00  0.00    +0.000 C 
ATOM      2  C   UNL     1      -0.359   0.733  -1.236  0.00  0.00    +0.000 C 
ENDROOT
BRANCH   2   3
ATOM      3  C   UNL     1      -1.332   0.357  -0.201  0.00  0.00    +0.000 A 
ATOM      4  C   UNL     1      -1.475  -0.956   0.221  0.00  0.00    +0.000 A 
ATOM      5  C   UNL     1      -2.542  -1.392   0.972  0.00  0.00    +0.000 A 
ATOM      6  C   UNL     1      -3.634  -0.543   1.074  0.00  0.00    +0.000 A 
ATOM      7  C   UNL     1      -3.672   0.657   0.384  0.00  0.00    +0.000 A 
ATOM      8  C   UNL     1      -2.453   1.161  -0.034  0.00  0.00    +0.000 A 
ATOM      9  O   UNL     1      -5.001   1.026   0.267  0.00  0.00    +0.000 OA
ATOM     10  C   UNL     1      -5.708   0.418   1.334  0.00  0.00    +0.000 C 
ATOM     11  O   UNL     1      -4.868  -0.678   1.685  0.00  0.00    +0.000 OA
ENDBRANCH   2   3
BRANCH   1  15
ATOM     12  C   UNL     1       3.920  -0.206   1.544  0.00  0.00    +0.000 A 
ATOM     13  C   UNL     1       2.933   0.536   2.167  0.00  0.00    +0.000 A 
ATOM     14  C   UNL     1       1.765   0.862   1.492  0.00  0.00    +0.000 A 
ATOM     15  C   UNL     1       1.480   0.338   0.237  0.00  0.00    +0.000 A 
ATOM     16  C   UNL     1       2.306  -0.700  -0.175  0.00  0.00    +0.000 A 
ATOM     17  C   UNL     1       3.499  -0.990   0.475  0.00  0.00    +0.000 A 
BRANCH  12  19
ATOM     18  C   UNL     1       6.247  -0.193   0.721  0.00  0.00    +0.000 C 
ATOM     19  O   UNL     1       5.276   0.102   1.690  0.00  0.00    +0.000 OA
ENDBRANCH  12  19
BRANCH  16  20
ATOM     20  O   UNL     1       1.891  -1.466  -1.256  0.00  0.00    +0.000 OA
ATOM     21  C   UNL     1       2.738  -2.362  -1.943  0.00  0.00    +0.000 C 
ENDBRANCH  16  20
ENDBRANCH   1  15
BRANCH   2  22
ATOM     22  C   UNL     1      -0.773   1.105  -2.570  0.00  0.00    +0.000 C 
ATOM     23  N   UNL     1      -1.054   1.052  -3.701  0.00  0.00    +0.000 NA
ENDBRANCH   2  22
TORSDOF 5
