REMARK  Name = 
REMARK  7 active torsions:
REMARK  status: ('A' for Active; 'I' for Inactive)
REMARK    1  A    between atoms: C_2  and  O_3
REMARK    2  A    between atoms: O_3  and  C_4
REMARK    3  A    between atoms: C_7  and  C_8
REMARK    4  A    between atoms: C_9  and  C_10
REMARK    5  A    between atoms: C_9  and  C_12
REMARK    6  A    between atoms: C_21  and  O_22
REMARK    7  A    between atoms: O_22  and  C_23
REMARK                            x       y       z     vdW  Elec       q    Type
REMARK                         _______ _______ _______ _____ _____    ______ ____
ROOT
ATOM      1  C   UNL     1       0.326   0.723   1.018  0.00  0.00    +0.000 C 
ATOM      2  C   UNL     1      -0.661  -0.148   1.159  0.00  0.00    +0.000 C 
ENDROOT
BRANCH   2   3
ATOM      3  C   UNL     1      -1.527  -0.279  -0.020  0.00  0.00    +0.000 A 
ATOM      4  C   UNL     1      -1.929   0.826  -0.760  0.00  0.00    +0.000 A 
ATOM      5  C   UNL     1      -3.250   0.999  -1.154  0.00  0.00    +0.000 A 
ATOM      6  C   UNL     1      -4.170  -0.026  -0.964  0.00  0.00    +0.000 A 
ATOM      7  C   UNL     1      -3.614  -1.281  -0.746  0.00  0.00    +0.000 A 
ATOM      8  C   UNL     1      -2.391  -1.365  -0.090  0.00  0.00    +0.000 A 
ATOM      9  O   UNL     1      -4.698  -2.164  -0.707  0.00  0.00    +0.000 OA
ATOM     10  C   UNL     1      -5.897  -1.490  -0.984  0.00  0.00    +0.000 C 
ATOM     11  O   UNL     1      -5.541  -0.120  -0.879  0.00  0.00    +0.000 OA
ENDBRANCH   2   3
BRANCH   1  15
ATOM     12  C   UNL     1       3.532  -0.444  -1.236  0.00  0.00    +0.000 A 
ATOM     13  C   UNL     1       2.292  -0.959  -1.569  0.00  0.00    +0.000 A 
ATOM     14  C   UNL     1       1.127  -0.380  -1.081  0.00  0.00    +0.000 A 
ATOM     15  C   UNL     1       1.156   0.669  -0.192  0.00  0.00    +0.000 A 
ATOM     16  C   UNL     1       2.365   1.351  -0.114  0.00  0.00    +0.000 A 
ATOM     17  C   UNL     1       3.522   0.831  -0.686  0.00  0.00    +0.000 A 
BRANCH  12  18
ATOM     18  O   UNL     1       4.627  -1.293  -1.055  0.00  0.00    +0.000 OA
BRANCH  18  20
ATOM     19  C   UNL     1       6.143  -2.602   0.268  0.00  0.00    +0.000 C 
ATOM     20  C   UNL     1       4.848  -1.843   0.226  0.00  0.00    +0.000 C 
ENDBRANCH  18  20
ENDBRANCH  12  18
BRANCH  16  21
ATOM     21  O   UNL     1       2.404   2.591   0.514  0.00  0.00    +0.000 OA
BRANCH  21  22
ATOM     22  C   UNL     1       1.447   3.561   0.152  0.00  0.00    +0.000 C 
ATOM     23  C   UNL     1       2.106   4.875  -0.212  0.00  0.00    +0.000 C 
ENDBRANCH  21  22
ENDBRANCH  16  21
ENDBRANCH   1  15
BRANCH   2  24
ATOM     24  C   UNL     1      -1.032  -0.692   2.446  0.00  0.00    +0.000 C 
ATOM     25  N   UNL     1      -1.185  -1.338   3.406  0.00  0.00    +0.000 NA
ENDBRANCH   2  24
TORSDOF 7
