REMARK  Name = 
REMARK  12 active torsions:
REMARK  status: ('A' for Active; 'I' for Inactive)
REMARK    1  A    between atoms: O_2  and  C_3
REMARK    2  A    between atoms: C_3  and  C_4
REMARK    3  A    between atoms: C_4  and  O_6
REMARK    4  A    between atoms: O_6  and  C_7
REMARK    5  A    between atoms: C_7  and  C_8
REMARK    6  A    between atoms: C_8  and  O_10
REMARK    7  A    between atoms: O_10  and  C_11
REMARK    8  A    between atoms: C_11  and  C_12
REMARK    9  A    between atoms: C_12  and  O_14
REMARK   10  A    between atoms: O_14  and  C_15
REMARK   11  A    between atoms: C_21  and  C_22
REMARK   12  A    between atoms: C_23  and  C_24
REMARK                            x       y       z     vdW  Elec       q    Type
REMARK                         _______ _______ _______ _____ _____    ______ ____
ROOT
ATOM      1  C   UNL     1      -0.783   0.222  -0.497  0.00  0.00    +0.000 A 
ATOM      2  C   UNL     1      -0.578   1.409  -1.195  0.00  0.00    +0.000 A 
ATOM      3  C   UNL     1      -1.422   2.497  -0.983  0.00  0.00    +0.000 A 
ATOM      4  O   UNL     1      -1.047   3.680  -1.585  0.00  0.00    +0.000 OA
ATOM      5  C   UNL     1      -2.062   2.538   0.253  0.00  0.00    +0.000 A 
ATOM      6  C   UNL     1      -2.037   1.422   1.088  0.00  0.00    +0.000 A 
ATOM      7  C   UNL     1      -1.630   0.178   0.611  0.00  0.00    +0.000 A 
ENDROOT
BRANCH   7   8
ATOM      8  C   UNL     1      -2.496  -1.007   0.616  0.00  0.00    +0.000 C 
ATOM      9  C   UNL     1      -3.317  -1.399  -0.300  0.00  0.00    +0.000 C 
BRANCH   9  10
ATOM     10  C   UNL     1      -4.723  -1.120  -0.503  0.00  0.00    +0.000 A 
ATOM     11  C   UNL     1      -5.753  -1.946  -0.065  0.00  0.00    +0.000 A 
ATOM     12  C   UNL     1      -7.057  -1.485   0.027  0.00  0.00    +0.000 A 
ATOM     13  O   UNL     1      -8.129  -2.278   0.367  0.00  0.00    +0.000 OA
ATOM     14  C   UNL     1      -7.257  -0.113   0.027  0.00  0.00    +0.000 A 
ATOM     15  C   UNL     1      -6.270   0.732  -0.468  0.00  0.00    +0.000 A 
ATOM     16  O   UNL     1      -6.332   2.106  -0.311  0.00  0.00    +0.000 OA
ATOM     17  C   UNL     1      -5.202   0.068  -1.062  0.00  0.00    +0.000 A 
ENDBRANCH   9  10
ENDBRANCH   7   8
BRANCH   1  18
ATOM     18  O   UNL     1       0.184  -0.794  -0.438  0.00  0.00    +0.000 OA
BRANCH  18  19
ATOM     19  C   UNL     1       1.596  -0.130  -0.605  0.00  0.00    +0.000 C 
ATOM     20  C   UNL     1       1.372   0.793   0.782  0.00  0.00    +0.000 C 
BRANCH  19  21
ATOM     21  C   UNL     1       2.363  -1.392   0.181  0.00  0.00    +0.000 C 
BRANCH  21  22
ATOM     22  O   UNL     1       2.701  -1.026   1.408  0.00  0.00    +0.000 OA
BRANCH  22  23
ATOM     23  C   UNL     1       4.066  -0.304   1.352  0.00  0.00    +0.000 C 
ATOM     24  C   UNL     1       4.580  -1.125   2.728  0.00  0.00    +0.000 C 
BRANCH  23  25
ATOM     25  C   UNL     1       4.723  -1.486   0.352  0.00  0.00    +0.000 C 
BRANCH  25  26
ATOM     26  O   UNL     1       6.066  -1.486   0.699  0.00  0.00    +0.000 OA
BRANCH  26  27
ATOM     27  C   UNL     1       6.553  -0.043   0.429  0.00  0.00    +0.000 C 
ATOM     28  C   UNL     1       7.581  -0.099   1.759  0.00  0.00    +0.000 C 
BRANCH  27  29
ATOM     29  C   UNL     1       7.784  -0.590  -0.580  0.00  0.00    +0.000 C 
BRANCH  29  31
ATOM     30  C   UNL     1       8.257   1.578  -0.407  0.00  0.00    +0.000 C 
ATOM     31  O   UNL     1       8.269   0.602  -1.136  0.00  0.00    +0.000 OA
ENDBRANCH  29  31
ENDBRANCH  27  29
ENDBRANCH  26  27
ENDBRANCH  25  26
ENDBRANCH  23  25
ENDBRANCH  22  23
ENDBRANCH  21  22
ENDBRANCH  19  21
ENDBRANCH  18  19
ENDBRANCH   1  18
TORSDOF 12
