REMARK  Name = 
REMARK  12 active torsions:
REMARK  status: ('A' for Active; 'I' for Inactive)
REMARK    1  A    between atoms: O_2  and  C_3
REMARK    2  A    between atoms: C_3  and  C_4
REMARK    3  A    between atoms: C_4  and  O_6
REMARK    4  A    between atoms: O_6  and  C_7
REMARK    5  A    between atoms: C_7  and  C_8
REMARK    6  A    between atoms: C_8  and  O_10
REMARK    7  A    between atoms: O_10  and  C_11
REMARK    8  A    between atoms: C_11  and  C_12
REMARK    9  A    between atoms: C_12  and  O_14
REMARK   10  A    between atoms: O_14  and  C_15
REMARK   11  A    between atoms: C_21  and  C_22
REMARK   12  A    between atoms: C_23  and  C_24
REMARK                            x       y       z     vdW  Elec       q    Type
REMARK                         _______ _______ _______ _____ _____    ______ ____
ROOT
ATOM      1  C   UNL     1      -0.598   0.163  -0.125  0.00  0.00    +0.000 A 
ATOM      2  C   UNL     1      -0.536  -1.218  -0.308  0.00  0.00    +0.000 A 
ATOM      3  C   UNL     1      -0.138  -1.994   0.775  0.00  0.00    +0.000 A 
ATOM      4  O   UNL     1      -0.579  -3.322   0.730  0.00  0.00    +0.000 OA
ATOM      5  C   UNL     1       0.071  -1.346   1.989  0.00  0.00    +0.000 A 
ATOM      6  C   UNL     1      -0.495  -0.092   2.201  0.00  0.00    +0.000 A 
ATOM      7  C   UNL     1      -0.866   0.713   1.128  0.00  0.00    +0.000 A 
ENDROOT
BRANCH   7   8
ATOM      8  C   UNL     1      -2.100   1.527   1.176  0.00  0.00    +0.000 C 
ATOM      9  C   UNL     1      -3.196   1.128   1.773  0.00  0.00    +0.000 C 
BRANCH   9  10
ATOM     10  C   UNL     1      -4.462   0.819   1.096  0.00  0.00    +0.000 A 
ATOM     11  C   UNL     1      -5.339  -0.136   1.597  0.00  0.00    +0.000 A 
ATOM     12  C   UNL     1      -6.542  -0.377   0.944  0.00  0.00    +0.000 A 
ATOM     13  O   UNL     1      -7.719  -0.668   1.641  0.00  0.00    +0.000 OA
ATOM     14  C   UNL     1      -6.727   0.105  -0.346  0.00  0.00    +0.000 A 
ATOM     15  C   UNL     1      -5.632   0.620  -0.998  0.00  0.00    +0.000 A 
ATOM     16  O   UNL     1      -5.765   1.090  -2.298  0.00  0.00    +0.000 OA
ATOM     17  C   UNL     1      -4.661   1.196  -0.227  0.00  0.00    +0.000 A 
ENDBRANCH   9  10
ENDBRANCH   7   8
BRANCH   1  18
ATOM     18  O   UNL     1      -0.479   1.057  -1.158  0.00  0.00    +0.000 OA
BRANCH  18  19
ATOM     19  C   UNL     1       0.933   1.507  -1.567  0.00  0.00    +0.000 C 
ATOM     20  C   UNL     1       1.369   1.820  -0.010  0.00  0.00    +0.000 C 
BRANCH  19  21
ATOM     21  C   UNL     1       1.547  -0.019  -1.512  0.00  0.00    +0.000 C 
BRANCH  21  22
ATOM     22  O   UNL     1       2.834   0.105  -1.027  0.00  0.00    +0.000 OA
BRANCH  22  23
ATOM     23  C   UNL     1       3.324   1.295  -1.832  0.00  0.00    +0.000 C 
ATOM     24  C   UNL     1       3.402   0.386  -3.208  0.00  0.00    +0.000 C 
BRANCH  23  25
ATOM     25  C   UNL     1       4.910   1.017  -1.510  0.00  0.00    +0.000 C 
BRANCH  25  26
ATOM     26  O   UNL     1       5.058   0.457  -0.328  0.00  0.00    +0.000 OA
BRANCH  26  27
ATOM     27  C   UNL     1       5.972  -0.749  -0.377  0.00  0.00    +0.000 C 
ATOM     28  C   UNL     1       6.584  -0.428  -1.876  0.00  0.00    +0.000 C 
BRANCH  27  29
ATOM     29  C   UNL     1       7.188   0.098   0.352  0.00  0.00    +0.000 C 
BRANCH  29  31
ATOM     30  C   UNL     1       6.078   0.926   1.732  0.00  0.00    +0.000 C 
ATOM     31  O   UNL     1       6.561   0.395   1.573  0.00  0.00    +0.000 OA
ENDBRANCH  29  31
ENDBRANCH  27  29
ENDBRANCH  26  27
ENDBRANCH  25  26
ENDBRANCH  23  25
ENDBRANCH  22  23
ENDBRANCH  21  22
ENDBRANCH  19  21
ENDBRANCH  18  19
ENDBRANCH   1  18
TORSDOF 12
