REMARK  Name = 
REMARK  12 active torsions:
REMARK  status: ('A' for Active; 'I' for Inactive)
REMARK    1  A    between atoms: O_2  and  C_3
REMARK    2  A    between atoms: C_3  and  C_4
REMARK    3  A    between atoms: C_4  and  O_6
REMARK    4  A    between atoms: O_6  and  C_7
REMARK    5  A    between atoms: C_7  and  C_8
REMARK    6  A    between atoms: C_8  and  O_10
REMARK    7  A    between atoms: O_10  and  C_11
REMARK    8  A    between atoms: C_11  and  C_12
REMARK    9  A    between atoms: C_12  and  O_14
REMARK   10  A    between atoms: O_14  and  C_15
REMARK   11  A    between atoms: C_21  and  C_22
REMARK   12  A    between atoms: C_23  and  C_24
REMARK                            x       y       z     vdW  Elec       q    Type
REMARK                         _______ _______ _______ _____ _____    ______ ____
ROOT
ATOM      1  C   UNL     1      -1.203  -1.757   0.193  0.00  0.00    +0.000 A 
ATOM      2  C   UNL     1      -0.505  -2.662  -0.548  0.00  0.00    +0.000 A 
ATOM      3  C   UNL     1      -0.646  -4.001  -0.302  0.00  0.00    +0.000 A 
ATOM      4  O   UNL     1       0.007  -4.854  -1.161  0.00  0.00    +0.000 OA
ATOM      5  C   UNL     1      -1.573  -4.370   0.634  0.00  0.00    +0.000 A 
ATOM      6  C   UNL     1      -2.584  -3.466   0.948  0.00  0.00    +0.000 A 
ATOM      7  C   UNL     1      -2.470  -2.114   0.647  0.00  0.00    +0.000 A 
ENDROOT
BRANCH   7   8
ATOM      8  C   UNL     1      -3.567  -1.181   0.645  0.00  0.00    +0.000 C 
ATOM      9  C   UNL     1      -4.192  -0.723  -0.440  0.00  0.00    +0.000 C 
BRANCH   9  10
ATOM     10  C   UNL     1      -4.409   0.712  -0.666  0.00  0.00    +0.000 A 
ATOM     11  C   UNL     1      -3.539   1.494  -1.420  0.00  0.00    +0.000 A 
ATOM     12  C   UNL     1      -2.990   2.668  -0.912  0.00  0.00    +0.000 A 
ATOM     13  O   UNL     1      -2.032   3.336  -1.673  0.00  0.00    +0.000 OA
ATOM     14  C   UNL     1      -3.625   3.285   0.161  0.00  0.00    +0.000 A 
ATOM     15  C   UNL     1      -4.850   2.764   0.545  0.00  0.00    +0.000 A 
ATOM     16  O   UNL     1      -5.708   3.491   1.359  0.00  0.00    +0.000 OA
ATOM     17  C   UNL     1      -5.233   1.484   0.146  0.00  0.00    +0.000 A 
ENDBRANCH   9  10
ENDBRANCH   7   8
BRANCH   1  18
ATOM     18  O   UNL     1      -0.893  -0.416   0.135  0.00  0.00    +0.000 OA
BRANCH  18  19
ATOM     19  C   UNL     1       0.181  -0.089   1.227  0.00  0.00    +0.000 C 
ATOM     20  C   UNL     1      -0.492   1.422   1.498  0.00  0.00    +0.000 C 
BRANCH  19  21
ATOM     21  C   UNL     1       1.224   0.524   0.068  0.00  0.00    +0.000 C 
BRANCH  21  22
ATOM     22  O   UNL     1       2.316  -0.292   0.429  0.00  0.00    +0.000 OA
BRANCH  22  23
ATOM     23  C   UNL     1       3.252   0.205  -0.698  0.00  0.00    +0.000 C 
ATOM     24  C   UNL     1       2.646  -0.941  -1.770  0.00  0.00    +0.000 C 
BRANCH  23  25
ATOM     25  C   UNL     1       4.465  -0.849  -0.213  0.00  0.00    +0.000 C 
BRANCH  25  26
ATOM     26  O   UNL     1       5.105  -0.166   0.743  0.00  0.00    +0.000 OA
BRANCH  26  27
ATOM     27  C   UNL     1       6.454   0.338   0.180  0.00  0.00    +0.000 C 
ATOM     28  C   UNL     1       6.534  -0.817  -1.044  0.00  0.00    +0.000 C 
BRANCH  27  29
ATOM     29  C   UNL     1       5.684   1.440  -0.831  0.00  0.00    +0.000 C 
BRANCH  29  31
ATOM     30  C   UNL     1       6.928   2.953   0.124  0.00  0.00    +0.000 C 
ATOM     31  O   UNL     1       5.717   2.583  -0.015  0.00  0.00    +0.000 OA
ENDBRANCH  29  31
ENDBRANCH  27  29
ENDBRANCH  26  27
ENDBRANCH  25  26
ENDBRANCH  23  25
ENDBRANCH  22  23
ENDBRANCH  21  22
ENDBRANCH  19  21
ENDBRANCH  18  19
ENDBRANCH   1  18
TORSDOF 12
