REMARK  Name = 
REMARK  6 active torsions:
REMARK  status: ('A' for Active; 'I' for Inactive)
REMARK    1  A    between atoms: C_2  and  O_5
REMARK    2  A    between atoms: O_5  and  C_6
REMARK    3  A    between atoms: C_11  and  O_12
REMARK    4  A    between atoms: O_12  and  C_13
REMARK    5  A    between atoms: C_19  and  C_20
REMARK    6  A    between atoms: C_21  and  C_22
REMARK                            x       y       z     vdW  Elec       q    Type
REMARK                         _______ _______ _______ _____ _____    ______ ____
ROOT
ATOM      1  C   UNL     1      -0.647  -1.261  -0.025  0.00  0.00    +0.000 A 
ATOM      2  C   UNL     1      -0.013  -2.417  -0.379  0.00  0.00    +0.000 A 
ATOM      3  C   UNL     1      -0.394  -3.674   0.083  0.00  0.00    +0.000 A 
ATOM      4  O   UNL     1       0.656  -4.577   0.289  0.00  0.00    +0.000 OA
ATOM      5  C   UNL     1      -1.411  -3.676   1.032  0.00  0.00    +0.000 A 
ATOM      6  C   UNL     1      -2.276  -2.589   1.077  0.00  0.00    +0.000 A 
ATOM      7  C   UNL     1      -1.935  -1.389   0.477  0.00  0.00    +0.000 A 
ENDROOT
BRANCH   7   8
ATOM      8  C   UNL     1      -2.800  -0.232   0.431  0.00  0.00    +0.000 C 
ATOM      9  C   UNL     1      -3.731  -0.049  -0.492  0.00  0.00    +0.000 C 
BRANCH   9  10
ATOM     10  C   UNL     1      -5.070   0.434  -0.191  0.00  0.00    +0.000 A 
ATOM     11  C   UNL     1      -6.152  -0.251  -0.678  0.00  0.00    +0.000 A 
ATOM     12  C   UNL     1      -7.411   0.265  -0.416  0.00  0.00    +0.000 A 
ATOM     13  O   UNL     1      -8.470  -0.298  -1.103  0.00  0.00    +0.000 OA
ATOM     14  C   UNL     1      -7.574   1.169   0.603  0.00  0.00    +0.000 A 
ATOM     15  C   UNL     1      -6.468   1.711   1.200  0.00  0.00    +0.000 A 
ATOM     16  O   UNL     1      -6.648   2.591   2.258  0.00  0.00    +0.000 OA
ATOM     17  C   UNL     1      -5.185   1.402   0.782  0.00  0.00    +0.000 A 
ENDBRANCH   9  10
ENDBRANCH   7   8
BRANCH   1  18
ATOM     18  O   UNL     1      -0.036   0.006   0.036  0.00  0.00    +0.000 OA
BRANCH  18  24
ATOM     19  C   UNL     1       5.207   0.303   0.246  0.00  0.00    +0.000 C 
ATOM     20  O   UNL     1       5.690  -0.482   1.099  0.00  0.00    +0.000 OA
ATOM     21  N   UNL     1       3.808   0.589   0.146  0.00  0.00    +0.000 N 
ATOM     22  C   UNL     1       3.154   1.194   1.288  0.00  0.00    +0.000 C 
ATOM     23  C   UNL     1       1.640   1.068   1.211  0.00  0.00    +0.000 C 
ATOM     24  C   UNL     1       1.488  -0.180   0.147  0.00  0.00    +0.000 C 
ATOM     25  C   UNL     1       1.759   0.819  -1.139  0.00  0.00    +0.000 C 
ATOM     26  C   UNL     1       3.252   0.649  -1.177  0.00  0.00    +0.000 C 
ATOM     27  O   UNL     1       3.629  -0.262  -1.977  0.00  0.00    +0.000 OA
BRANCH  19  28
ATOM     28  O   UNL     1       6.008   1.307  -0.308  0.00  0.00    +0.000 OA
BRANCH  28  30
ATOM     29  C   UNL     1       7.372   1.318   0.388  0.00  0.00    +0.000 C 
ATOM     30  C   UNL     1       7.296   1.612   0.236  0.00  0.00    +0.000 C 
ATOM     31  C   UNL     1       8.115   2.108  -0.955  0.00  0.00    +0.000 C 
ATOM     32  C   UNL     1       7.147   2.791   1.195  0.00  0.00    +0.000 C 
ENDBRANCH  28  30
ENDBRANCH  19  28
ENDBRANCH  18  24
ENDBRANCH   1  18
TORSDOF 6
