REMARK  Name = 
REMARK  6 active torsions:
REMARK  status: ('A' for Active; 'I' for Inactive)
REMARK    1  A    between atoms: C_2  and  O_5
REMARK    2  A    between atoms: O_5  and  C_6
REMARK    3  A    between atoms: C_11  and  O_12
REMARK    4  A    between atoms: O_12  and  C_13
REMARK    5  A    between atoms: C_19  and  C_20
REMARK    6  A    between atoms: C_21  and  C_22
REMARK                            x       y       z     vdW  Elec       q    Type
REMARK                         _______ _______ _______ _____ _____    ______ ____
ROOT
ATOM      1  C   UNL     1      -0.557  -1.260  -0.641  0.00  0.00    +0.000 A 
ATOM      2  C   UNL     1       0.254  -1.592  -1.726  0.00  0.00    +0.000 A 
ATOM      3  C   UNL     1      -0.012  -1.120  -2.994  0.00  0.00    +0.000 A 
ATOM      4  O   UNL     1       0.884  -1.240  -4.063  0.00  0.00    +0.000 OA
ATOM      5  C   UNL     1      -1.071  -0.224  -3.083  0.00  0.00    +0.000 A 
ATOM      6  C   UNL     1      -1.353   0.545  -1.959  0.00  0.00    +0.000 A 
ATOM      7  C   UNL     1      -1.308  -0.086  -0.721  0.00  0.00    +0.000 A 
ENDROOT
BRANCH   7   8
ATOM      8  C   UNL     1      -2.368   0.006   0.273  0.00  0.00    +0.000 C 
ATOM      9  C   UNL     1      -3.167   1.017   0.478  0.00  0.00    +0.000 C 
BRANCH   9  10
ATOM     10  C   UNL     1      -4.633   0.939   0.344  0.00  0.00    +0.000 A 
ATOM     11  C   UNL     1      -5.442   0.418   1.330  0.00  0.00    +0.000 A 
ATOM     12  C   UNL     1      -6.770   0.123   1.051  0.00  0.00    +0.000 A 
ATOM     13  O   UNL     1      -7.692  -0.058   2.064  0.00  0.00    +0.000 OA
ATOM     14  C   UNL     1      -7.209   0.110  -0.266  0.00  0.00    +0.000 A 
ATOM     15  C   UNL     1      -6.271   0.309  -1.266  0.00  0.00    +0.000 A 
ATOM     16  O   UNL     1      -6.467  -0.149  -2.568  0.00  0.00    +0.000 OA
ATOM     17  C   UNL     1      -5.214   1.136  -0.906  0.00  0.00    +0.000 A 
ENDBRANCH   9  10
ENDBRANCH   7   8
BRANCH   1  18
ATOM     18  O   UNL     1      -0.096  -1.485   0.666  0.00  0.00    +0.000 OA
BRANCH  18  24
ATOM     19  C   UNL     1       4.666   0.060   1.286  0.00  0.00    +0.000 C 
ATOM     20  O   UNL     1       5.191  -0.887   1.914  0.00  0.00    +0.000 OA
ATOM     21  N   UNL     1       3.289   0.417   1.381  0.00  0.00    +0.000 N 
ATOM     22  C   UNL     1       2.562   1.020   0.265  0.00  0.00    +0.000 C 
ATOM     23  C   UNL     1       1.215   0.374   0.176  0.00  0.00    +0.000 C 
ATOM     24  C   UNL     1       1.417  -1.145   0.838  0.00  0.00    +0.000 C 
ATOM     25  C   UNL     1       1.152  -0.548   2.376  0.00  0.00    +0.000 C 
ATOM     26  C   UNL     1       2.493   0.108   2.532  0.00  0.00    +0.000 C 
ATOM     27  O   UNL     1       3.089   0.110   3.636  0.00  0.00    +0.000 OA
BRANCH  19  28
ATOM     28  O   UNL     1       5.283   0.371   0.068  0.00  0.00    +0.000 OA
BRANCH  28  30
ATOM     29  C   UNL     1       6.951  -0.709  -1.194  0.00  0.00    +0.000 C 
ATOM     30  C   UNL     1       6.686   0.209  -0.092  0.00  0.00    +0.000 C 
ATOM     31  C   UNL     1       7.263  -0.308   1.196  0.00  0.00    +0.000 C 
ATOM     32  C   UNL     1       7.237   1.587  -0.396  0.00  0.00    +0.000 C 
ENDBRANCH  28  30
ENDBRANCH  19  28
ENDBRANCH  18  24
ENDBRANCH   1  18
TORSDOF 6
