REMARK  Name = 
REMARK  5 active torsions:
REMARK  status: ('A' for Active; 'I' for Inactive)
REMARK    1  A    between atoms: C_5  and  C_6
REMARK    2  A    between atoms: C_7  and  C_8
REMARK    3  A    between atoms: C_16  and  O_17
REMARK    4  A    between atoms: O_17  and  C_18
REMARK    5  A    between atoms: N_21  and  C_22
REMARK                            x       y       z     vdW  Elec       q    Type
REMARK                         _______ _______ _______ _____ _____    ______ ____
ROOT
ATOM      1  O   UNL     1       0.029   5.264   0.824  0.00  0.00    +0.000 OA
ATOM      2  C   UNL     1       0.407   4.106   0.137  0.00  0.00    +0.000 A 
ATOM      3  C   UNL     1       1.502   4.114  -0.717  0.00  0.00    +0.000 A 
ATOM      4  C   UNL     1       2.322   3.006  -0.778  0.00  0.00    +0.000 A 
ATOM      5  C   UNL     1       2.063   1.861  -0.034  0.00  0.00    +0.000 A 
ATOM      6  C   UNL     1       0.825   1.747   0.541  0.00  0.00    +0.000 A 
ATOM      7  C   UNL     1      -0.020   2.847   0.539  0.00  0.00    +0.000 A 
ENDROOT
BRANCH   5   8
ATOM      8  C   UNL     1       3.131   0.901   0.089  0.00  0.00    +0.000 C 
ATOM      9  C   UNL     1       3.083  -0.226   0.753  0.00  0.00    +0.000 C 
BRANCH   9  10
ATOM     10  C   UNL     1       4.139  -1.208   0.468  0.00  0.00    +0.000 A 
ATOM     11  C   UNL     1       5.479  -0.920   0.609  0.00  0.00    +0.000 A 
ATOM     12  C   UNL     1       6.462  -1.438  -0.206  0.00  0.00    +0.000 A 
ATOM     13  O   UNL     1       7.710  -0.814  -0.280  0.00  0.00    +0.000 OA
ATOM     14  C   UNL     1       6.070  -2.241  -1.268  0.00  0.00    +0.000 A 
ATOM     15  C   UNL     1       4.768  -2.716  -1.329  0.00  0.00    +0.000 A 
ATOM     16  O   UNL     1       4.441  -3.535  -2.401  0.00  0.00    +0.000 OA
ATOM     17  C   UNL     1       3.819  -2.170  -0.481  0.00  0.00    +0.000 A 
ENDBRANCH   9  10
ENDBRANCH   5   8
BRANCH   6  18
ATOM     18  O   UNL     1       0.450   0.511   1.016  0.00  0.00    +0.000 OA
BRANCH  18  19
ATOM     19  C   UNL     1      -0.776  -0.123   0.767  0.00  0.00    +0.000 C 
ATOM     20  C   UNL     1      -1.177   0.088  -0.660  0.00  0.00    +0.000 C 
ATOM     21  C   UNL     1      -2.550  -0.381  -1.002  0.00  0.00    +0.000 C 
ATOM     22  N   UNL     1      -3.316  -0.880   0.103  0.00  0.00    +0.000 N 
ATOM     23  C   UNL     1      -3.054  -0.529   1.497  0.00  0.00    +0.000 C 
ATOM     24  C   UNL     1      -1.900   0.420   1.640  0.00  0.00    +0.000 C 
BRANCH  22  25
ATOM     25  C   UNL     1      -4.687  -1.198  -0.172  0.00  0.00    +0.000 A 
ATOM     26  C   UNL     1      -5.101  -2.500  -0.414  0.00  0.00    +0.000 A 
ATOM     27  C   UNL     1      -6.432  -2.657  -0.773  0.00  0.00    +0.000 A 
ATOM     28  N   UNL     1      -7.277  -1.606  -0.874  0.00  0.00    +0.000 NA
ATOM     29  C   UNL     1      -6.914  -0.441  -0.284  0.00  0.00    +0.000 A 
ATOM     30 CL   UNL     1      -7.859   0.990  -0.686  0.00  0.00    +0.000 Cl
ATOM     31  N   UNL     1      -5.638  -0.272   0.102  0.00  0.00    +0.000 NA
ENDBRANCH  22  25
ENDBRANCH  18  19
ENDBRANCH   6  18
TORSDOF 5
