REMARK  Name = 
REMARK  7 active torsions:
REMARK  status: ('A' for Active; 'I' for Inactive)
REMARK    1  A    between atoms: C_5  and  C_6
REMARK    2  A    between atoms: C_7  and  C_8
REMARK    3  A    between atoms: C_16  and  O_17
REMARK    4  A    between atoms: O_17  and  C_18
REMARK    5  A    between atoms: C_18  and  C_19
REMARK    6  A    between atoms: N_21  and  C_22
REMARK    7  A    between atoms: C_22  and  C_23
REMARK                            x       y       z     vdW  Elec       q    Type
REMARK                         _______ _______ _______ _____ _____    ______ ____
ROOT
ATOM      1  O   UNL     1      -1.766  -5.270  -0.423  0.00  0.00    +0.000 OA
ATOM      2  C   UNL     1      -1.595  -4.075   0.069  0.00  0.00    +0.000 A 
ATOM      3  C   UNL     1      -2.461  -3.670   1.075  0.00  0.00    +0.000 A 
ATOM      4  C   UNL     1      -2.424  -2.347   1.498  0.00  0.00    +0.000 A 
ATOM      5  C   UNL     1      -1.645  -1.395   0.852  0.00  0.00    +0.000 A 
ATOM      6  C   UNL     1      -0.755  -1.840  -0.120  0.00  0.00    +0.000 A 
ATOM      7  C   UNL     1      -0.606  -3.205  -0.332  0.00  0.00    +0.000 A 
ENDROOT
BRANCH   5   8
ATOM      8  C   UNL     1      -2.216  -0.042   0.800  0.00  0.00    +0.000 C 
ATOM      9  C   UNL     1      -2.440   0.456  -0.395  0.00  0.00    +0.000 C 
BRANCH   9  10
ATOM     10  C   UNL     1      -3.558   1.348  -0.706  0.00  0.00    +0.000 A 
ATOM     11  C   UNL     1      -3.343   2.695  -0.445  0.00  0.00    +0.000 A 
ATOM     12  C   UNL     1      -4.406   3.554  -0.359  0.00  0.00    +0.000 A 
ATOM     13  O   UNL     1      -4.194   4.855   0.107  0.00  0.00    +0.000 OA
ATOM     14  C   UNL     1      -5.683   3.061  -0.230  0.00  0.00    +0.000 A 
ATOM     15  C   UNL     1      -5.912   1.714  -0.321  0.00  0.00    +0.000 A 
ATOM     16  O   UNL     1      -7.193   1.229  -0.152  0.00  0.00    +0.000 OA
ATOM     17  C   UNL     1      -4.850   0.892  -0.606  0.00  0.00    +0.000 A 
ENDBRANCH   9  10
ENDBRANCH   5   8
BRANCH   6  18
ATOM     18  O   UNL     1      -0.280  -0.882  -0.984  0.00  0.00    +0.000 OA
BRANCH  18  19
ATOM     19  C   UNL     1       0.827  -0.967  -1.811  0.00  0.00    +0.000 C 
BRANCH  19  20
ATOM     20  C   UNL     1       2.073  -0.190  -1.069  0.00  0.00    +0.000 C 
ATOM     21  C   UNL     1       1.808  -0.981   0.352  0.00  0.00    +0.000 C 
ATOM     22  N   UNL     1       2.861  -0.363   1.127  0.00  0.00    +0.000 NA
ATOM     23  C   UNL     1       2.772   1.045   1.215  0.00  0.00    +0.000 C 
ATOM     24  C   UNL     1       1.921   1.738   0.223  0.00  0.00    +0.000 C 
ATOM     25  O   UNL     1       1.200   0.972  -0.640  0.00  0.00    +0.000 OA
BRANCH  22  26
ATOM     26  C   UNL     1       4.133  -0.942   0.955  0.00  0.00    +0.000 C 
BRANCH  26  27
ATOM     27  C   UNL     1       5.131  -0.208   0.195  0.00  0.00    +0.000 A 
ATOM     28  C   UNL     1       6.281  -0.906  -0.165  0.00  0.00    +0.000 A 
ATOM     29  C   UNL     1       7.499  -0.263  -0.346  0.00  0.00    +0.000 A 
ATOM     30  C   UNL     1       7.467   1.120  -0.439  0.00  0.00    +0.000 A 
ATOM     31  C   UNL     1       6.249   1.764  -0.615  0.00  0.00    +0.000 A 
ATOM     32  C   UNL     1       5.107   1.104  -0.177  0.00  0.00    +0.000 A 
ENDBRANCH  26  27
ENDBRANCH  22  26
ENDBRANCH  19  20
ENDBRANCH  18  19
ENDBRANCH   6  18
TORSDOF 7
