REMARK  Name = 
REMARK  6 active torsions:
REMARK  status: ('A' for Active; 'I' for Inactive)
REMARK    1  A    between atoms: O_2  and  C_3
REMARK    2  A    between atoms: C_6  and  C_7
REMARK    3  A    between atoms: C_8  and  C_9
REMARK    4  A    between atoms: C_11  and  O_12
REMARK    5  A    between atoms: C_15  and  O_16
REMARK    6  A    between atoms: C_19  and  O_20
REMARK                            x       y       z     vdW  Elec       q    Type
REMARK                         _______ _______ _______ _____ _____    ______ ____
ROOT
ATOM      1  C   UNL     1       0.483  -1.150  -0.093  0.00  0.00    +0.000 C 
ATOM      2  C   UNL     1      -0.500  -1.553   0.670  0.00  0.00    +0.000 C 
ENDROOT
BRANCH   1   6
ATOM      3  C   UNL     1       4.164   0.694  -0.168  0.00  0.00    +0.000 A 
ATOM      4  C   UNL     1       3.208   1.219   0.693  0.00  0.00    +0.000 A 
ATOM      5  C   UNL     1       1.953   0.628   0.622  0.00  0.00    +0.000 A 
ATOM      6  C   UNL     1       1.799  -0.735   0.397  0.00  0.00    +0.000 A 
ATOM      7  C   UNL     1       2.932  -1.384  -0.082  0.00  0.00    +0.000 A 
ATOM      8  C   UNL     1       4.098  -0.680  -0.361  0.00  0.00    +0.000 A 
BRANCH   3  10
ATOM      9  C   UNL     1       5.400   2.758  -0.130  0.00  0.00    +0.000 C 
ATOM     10  O   UNL     1       5.268   1.434  -0.582  0.00  0.00    +0.000 OA
ENDBRANCH   3  10
BRANCH   7  11
ATOM     11  O   UNL     1       2.838  -2.750  -0.259  0.00  0.00    +0.000 OA
ATOM     12  C   UNL     1       2.470  -3.558   0.837  0.00  0.00    +0.000 C 
ENDBRANCH   7  11
ENDBRANCH   1   6
BRANCH   2  13
ATOM     13  C   UNL     1      -1.869  -1.023   0.589  0.00  0.00    +0.000 A 
ATOM     14  C   UNL     1      -2.169   0.003   1.478  0.00  0.00    +0.000 A 
ATOM     15  C   UNL     1      -2.972   1.075   1.134  0.00  0.00    +0.000 A 
ATOM     16  C   UNL     1      -3.891   0.844   0.120  0.00  0.00    +0.000 A 
ATOM     17  C   UNL     1      -3.610  -0.133  -0.824  0.00  0.00    +0.000 A 
ATOM     18  C   UNL     1      -2.477  -0.920  -0.657  0.00  0.00    +0.000 A 
BRANCH  15  19
ATOM     19  O   UNL     1      -3.302   1.982   2.146  0.00  0.00    +0.000 OA
ATOM     20  C   UNL     1      -3.994   3.139   1.760  0.00  0.00    +0.000 C 
ENDBRANCH  15  19
BRANCH  17  21
ATOM     21  O   UNL     1      -4.209   0.042  -2.075  0.00  0.00    +0.000 OA
ATOM     22  C   UNL     1      -5.618   0.068  -2.233  0.00  0.00    +0.000 C 
ENDBRANCH  17  21
ENDBRANCH   2  13
TORSDOF 6
