REMARK  Name = 
REMARK  7 active torsions:
REMARK  status: ('A' for Active; 'I' for Inactive)
REMARK    1  A    between atoms: C_5  and  C_6
REMARK    2  A    between atoms: C_7  and  C_8
REMARK    3  A    between atoms: C_16  and  O_17
REMARK    4  A    between atoms: O_17  and  C_18
REMARK    5  A    between atoms: C_18  and  C_19
REMARK    6  A    between atoms: N_21  and  C_22
REMARK    7  A    between atoms: C_22  and  C_23
REMARK                            x       y       z     vdW  Elec       q    Type
REMARK                         _______ _______ _______ _____ _____    ______ ____
ROOT
ATOM      1  O   UNL     1      -2.226  -5.015  -1.257  0.00  0.00    +0.000 OA
ATOM      2  C   UNL     1      -2.260  -4.132  -0.586  0.00  0.00    +0.000 A 
ATOM      3  C   UNL     1      -3.302  -3.785   0.268  0.00  0.00    +0.000 A 
ATOM      4  C   UNL     1      -3.293  -2.571   0.946  0.00  0.00    +0.000 A 
ATOM      5  C   UNL     1      -2.260  -1.664   0.741  0.00  0.00    +0.000 A 
ATOM      6  C   UNL     1      -1.104  -2.083   0.085  0.00  0.00    +0.000 A 
ATOM      7  C   UNL     1      -1.134  -3.329  -0.504  0.00  0.00    +0.000 A 
ENDROOT
BRANCH   5   8
ATOM      8  C   UNL     1      -2.449  -0.221   0.793  0.00  0.00    +0.000 C 
ATOM      9  C   UNL     1      -3.529   0.400   1.167  0.00  0.00    +0.000 C 
BRANCH   9  10
ATOM     10  C   UNL     1      -4.199   1.456   0.405  0.00  0.00    +0.000 A 
ATOM     11  C   UNL     1      -4.321   2.694   0.987  0.00  0.00    +0.000 A 
ATOM     12  C   UNL     1      -4.679   3.763   0.186  0.00  0.00    +0.000 A 
ATOM     13  O   UNL     1      -4.404   5.054   0.638  0.00  0.00    +0.000 OA
ATOM     14  C   UNL     1      -5.105   3.511  -1.111  0.00  0.00    +0.000 A 
ATOM     15  C   UNL     1      -5.234   2.209  -1.575  0.00  0.00    +0.000 A 
ATOM     16  O   UNL     1      -5.915   1.903  -2.750  0.00  0.00    +0.000 OA
ATOM     17  C   UNL     1      -4.918   1.168  -0.723  0.00  0.00    +0.000 A 
ENDBRANCH   9  10
ENDBRANCH   5   8
BRANCH   6  18
ATOM     18  O   UNL     1       0.049  -1.479   0.548  0.00  0.00    +0.000 OA
BRANCH  18  19
ATOM     19  C   UNL     1       1.348  -1.987   0.429  0.00  0.00    +0.000 C 
BRANCH  19  20
ATOM     20  C   UNL     1       2.112  -0.870   1.383  0.00  0.00    +0.000 C 
ATOM     21  C   UNL     1       3.595  -1.268   0.822  0.00  0.00    +0.000 C 
ATOM     22  N   UNL     1       3.824  -1.044  -0.463  0.00  0.00    +0.000 NA
ATOM     23  C   UNL     1       3.104  -0.369  -1.423  0.00  0.00    +0.000 C 
ATOM     24  C   UNL     1       1.714  -0.154  -0.844  0.00  0.00    +0.000 C 
ATOM     25  O   UNL     1       1.919   0.269   0.404  0.00  0.00    +0.000 OA
BRANCH  22  26
ATOM     26  C   UNL     1       5.223  -1.075  -0.752  0.00  0.00    +0.000 C 
BRANCH  26  27
ATOM     27  C   UNL     1       5.774   0.191  -0.225  0.00  0.00    +0.000 A 
ATOM     28  C   UNL     1       5.334   1.346  -0.852  0.00  0.00    +0.000 A 
ATOM     29  C   UNL     1       5.572   2.564  -0.280  0.00  0.00    +0.000 A 
ATOM     30  C   UNL     1       6.684   2.680   0.540  0.00  0.00    +0.000 A 
ATOM     31  C   UNL     1       7.345   1.534   0.942  0.00  0.00    +0.000 A 
ATOM     32  C   UNL     1       6.734   0.304   0.732  0.00  0.00    +0.000 A 
ENDBRANCH  26  27
ENDBRANCH  22  26
ENDBRANCH  19  20
ENDBRANCH  18  19
ENDBRANCH   6  18
TORSDOF 7
