REMARK  Name = 
REMARK  5 active torsions:
REMARK  status: ('A' for Active; 'I' for Inactive)
REMARK    1  A    between atoms: C_2  and  C_3
REMARK    2  A    between atoms: C_14  and  O_15
REMARK    3  A    between atoms: O_15  and  C_16
REMARK    4  A    between atoms: C_22  and  C_23
REMARK    5  A    between atoms: C_24  and  C_25
REMARK                            x       y       z     vdW  Elec       q    Type
REMARK                         _______ _______ _______ _____ _____    ______ ____
ROOT
ATOM      1  C   UNL     1       0.018  -0.175   0.634  0.00  0.00    +0.000 A 
ATOM      2  C   UNL     1       0.288  -1.440   1.164  0.00  0.00    +0.000 A 
ATOM      3  C   UNL     1      -0.294  -1.945   2.287  0.00  0.00    +0.000 A 
ATOM      4  O   UNL     1      -0.122  -3.314   2.526  0.00  0.00    +0.000 OA
ATOM      5  C   UNL     1      -1.398  -1.256   2.778  0.00  0.00    +0.000 A 
ATOM      6  C   UNL     1      -1.707  -0.028   2.199  0.00  0.00    +0.000 A 
ATOM      7  C   UNL     1      -1.266   0.286   0.914  0.00  0.00    +0.000 A 
ENDROOT
BRANCH   7   8
ATOM      8  C   UNL     1      -2.199   0.720  -0.140  0.00  0.00    +0.000 C 
ATOM      9  C   UNL     1      -3.027  -0.082  -0.761  0.00  0.00    +0.000 C 
BRANCH   9  10
ATOM     10  C   UNL     1      -4.478   0.059  -0.816  0.00  0.00    +0.000 A 
ATOM     11  C   UNL     1      -5.155   0.281  -2.011  0.00  0.00    +0.000 A 
ATOM     12  C   UNL     1      -6.478   0.669  -2.013  0.00  0.00    +0.000 A 
ATOM     13  O   UNL     1      -7.244   0.820  -3.149  0.00  0.00    +0.000 OA
ATOM     14  C   UNL     1      -7.064   0.876  -0.771  0.00  0.00    +0.000 A 
ATOM     15  C   UNL     1      -6.459   0.436   0.398  0.00  0.00    +0.000 A 
ATOM     16  O   UNL     1      -6.950   0.785   1.660  0.00  0.00    +0.000 OA
ATOM     17  C   UNL     1      -5.311  -0.328   0.230  0.00  0.00    +0.000 A 
ENDBRANCH   9  10
ENDBRANCH   7   8
BRANCH   1  18
ATOM     18  O   UNL     1       0.573   0.091  -0.551  0.00  0.00    +0.000 OA
BRANCH  18  30
ATOM     19  C   UNL     1       5.231  -0.625  -0.399  0.00  0.00    +0.000 A 
ATOM     20  C   UNL     1       4.138  -1.302   0.132  0.00  0.00    +0.000 A 
ATOM     21  C   UNL     1       4.367  -1.952   1.463  0.00  0.00    +0.000 C 
ATOM     22  N   UNL     1       2.969  -0.678  -0.149  0.00  0.00    +0.000 NA
ATOM     23  C   UNL     1       2.833   0.345  -0.966  0.00  0.00    +0.000 A 
ATOM     24  N   UNL     1       3.877   1.214  -1.058  0.00  0.00    +0.000 N 
ATOM     25  C   UNL     1       5.098   0.625  -0.995  0.00  0.00    +0.000 A 
ATOM     26  O   UNL     1       6.084   1.353  -1.258  0.00  0.00    +0.000 OA
ATOM     27  C   UNL     1       3.682   2.611  -0.659  0.00  0.00    +0.000 C 
ATOM     28  C   UNL     1       2.968   2.599   0.670  0.00  0.00    +0.000 C 
ATOM     29  C   UNL     1       1.844   1.599   0.764  0.00  0.00    +0.000 C 
ATOM     30  C   UNL     1       1.514   1.273  -0.821  0.00  0.00    +0.000 C 
BRANCH  19  32
ATOM     31  C   UNL     1       7.127  -1.122  -0.920  0.00  0.00    +0.000 C 
ATOM     32  C   UNL     1       6.541  -1.294  -0.382  0.00  0.00    +0.000 C 
ENDBRANCH  19  32
ENDBRANCH  18  30
ENDBRANCH   1  18
TORSDOF 5
