REMARK  Name = 
REMARK  5 active torsions:
REMARK  status: ('A' for Active; 'I' for Inactive)
REMARK    1  A    between atoms: C_2  and  C_3
REMARK    2  A    between atoms: C_14  and  O_15
REMARK    3  A    between atoms: O_15  and  C_16
REMARK    4  A    between atoms: C_22  and  C_23
REMARK    5  A    between atoms: C_24  and  C_25
REMARK                            x       y       z     vdW  Elec       q    Type
REMARK                         _______ _______ _______ _____ _____    ______ ____
ROOT
ATOM      1  C   UNL     1       0.171  -1.802  -0.412  0.00  0.00    +0.000 A 
ATOM      2  C   UNL     1       0.179  -3.174  -0.178  0.00  0.00    +0.000 A 
ATOM      3  C   UNL     1       1.353  -3.871   0.072  0.00  0.00    +0.000 A 
ATOM      4  O   UNL     1       1.346  -4.966   0.907  0.00  0.00    +0.000 OA
ATOM      5  C   UNL     1       2.493  -3.383  -0.547  0.00  0.00    +0.000 A 
ATOM      6  C   UNL     1       2.362  -2.189  -1.250  0.00  0.00    +0.000 A 
ATOM      7  C   UNL     1       1.339  -1.286  -0.969  0.00  0.00    +0.000 A 
ENDROOT
BRANCH   7   8
ATOM      8  C   UNL     1       1.615   0.111  -0.606  0.00  0.00    +0.000 C 
ATOM      9  C   UNL     1       2.441   0.906  -1.209  0.00  0.00    +0.000 C 
BRANCH   9  10
ATOM     10  C   UNL     1       3.604   1.567  -0.597  0.00  0.00    +0.000 A 
ATOM     11  C   UNL     1       4.769   1.482  -1.353  0.00  0.00    +0.000 A 
ATOM     12  C   UNL     1       6.009   1.228  -0.788  0.00  0.00    +0.000 A 
ATOM     13  O   UNL     1       7.117   1.269  -1.640  0.00  0.00    +0.000 OA
ATOM     14  C   UNL     1       6.162   1.296   0.564  0.00  0.00    +0.000 A 
ATOM     15  C   UNL     1       5.042   1.342   1.343  0.00  0.00    +0.000 A 
ATOM     16  O   UNL     1       5.189   1.733   2.678  0.00  0.00    +0.000 OA
ATOM     17  C   UNL     1       3.800   1.594   0.776  0.00  0.00    +0.000 A 
ENDBRANCH   9  10
ENDBRANCH   7   8
BRANCH   1  18
ATOM     18  O   UNL     1      -0.998  -1.093  -0.634  0.00  0.00    +0.000 OA
BRANCH  18  30
ATOM     19  C   UNL     1      -5.161   1.251   0.025  0.00  0.00    +0.000 A 
ATOM     20  C   UNL     1      -4.209   2.231   0.290  0.00  0.00    +0.000 A 
ATOM     21  C   UNL     1      -4.512   3.233   1.366  0.00  0.00    +0.000 C 
ATOM     22  N   UNL     1      -2.936   1.882  -0.018  0.00  0.00    +0.000 NA
ATOM     23  C   UNL     1      -2.573   0.623  -0.381  0.00  0.00    +0.000 A 
ATOM     24  N   UNL     1      -3.404  -0.349  -0.069  0.00  0.00    +0.000 N 
ATOM     25  C   UNL     1      -4.722  -0.051  -0.192  0.00  0.00    +0.000 A 
ATOM     26  O   UNL     1      -5.545  -1.004  -0.340  0.00  0.00    +0.000 OA
ATOM     27  C   UNL     1      -3.125  -1.631   0.505  0.00  0.00    +0.000 C 
ATOM     28  C   UNL     1      -2.022  -1.439   1.492  0.00  0.00    +0.000 C 
ATOM     29  C   UNL     1      -1.369  -0.153   1.536  0.00  0.00    +0.000 C 
ATOM     30  C   UNL     1      -0.991   0.348  -0.015  0.00  0.00    +0.000 C 
BRANCH  19  32
ATOM     31  C   UNL     1      -6.819   2.736   0.704  0.00  0.00    +0.000 C 
ATOM     32  C   UNL     1      -6.603   1.558   0.188  0.00  0.00    +0.000 C 
ENDBRANCH  19  32
ENDBRANCH  18  30
ENDBRANCH   1  18
TORSDOF 5
