REMARK  Name = 
REMARK  11 active torsions:
REMARK  status: ('A' for Active; 'I' for Inactive)
REMARK    1  A    between atoms: C_2  and  O_4
REMARK    2  A    between atoms: O_4  and  C_5
REMARK    3  A    between atoms: C_5  and  C_7
REMARK    4  A    between atoms: C_7  and  C_8
REMARK    5  A    between atoms: C_8  and  O_9
REMARK    6  A    between atoms: C_8  and  C_27
REMARK    7  A    between atoms: O_9  and  C_10
REMARK    8  A    between atoms: C_16  and  C_17
REMARK    9  A    between atoms: C_18  and  C_19
REMARK   10  A    between atoms: C_27  and  O_29
REMARK   11  A    between atoms: O_29  and  C_30
REMARK                            x       y       z     vdW  Elec       q    Type
REMARK                         _______ _______ _______ _____ _____    ______ ____
ROOT
ATOM      1  C   UNL     1      -0.280  -0.404  -0.170  0.00  0.00    +0.000 A 
ATOM      2  C   UNL     1      -0.735  -1.709  -0.019  0.00  0.00    +0.000 A 
ATOM      3  C   UNL     1      -0.240  -2.540   0.980  0.00  0.00    +0.000 A 
ATOM      4  O   UNL     1      -0.007  -3.893   0.753  0.00  0.00    +0.000 OA
ATOM      5  C   UNL     1       0.377  -1.883   2.039  0.00  0.00    +0.000 A 
ATOM      6  C   UNL     1       0.874  -0.596   1.876  0.00  0.00    +0.000 A 
ATOM      7  C   UNL     1       0.687   0.106   0.689  0.00  0.00    +0.000 A 
ENDROOT
BRANCH   7   8
ATOM      8  C   UNL     1       1.716   0.926   0.076  0.00  0.00    +0.000 C 
ATOM      9  C   UNL     1       2.715   0.628  -0.624  0.00  0.00    +0.000 C 
BRANCH   9  10
ATOM     10  C   UNL     1       4.097   0.377  -0.461  0.00  0.00    +0.000 A 
ATOM     11  C   UNL     1       5.131   1.302  -0.514  0.00  0.00    +0.000 A 
ATOM     12  C   UNL     1       6.443   0.908  -0.276  0.00  0.00    +0.000 A 
ATOM     13  O   UNL     1       7.457   1.842  -0.241  0.00  0.00    +0.000 OA
ATOM     14  C   UNL     1       6.791  -0.429  -0.313  0.00  0.00    +0.000 A 
ATOM     15  C   UNL     1       5.790  -1.378  -0.406  0.00  0.00    +0.000 A 
ATOM     16  O   UNL     1       6.094  -2.736  -0.520  0.00  0.00    +0.000 OA
ATOM     17  C   UNL     1       4.499  -0.948  -0.342  0.00  0.00    +0.000 A 
ENDBRANCH   9  10
ENDBRANCH   7   8
BRANCH   1  18
ATOM     18  O   UNL     1      -0.999   0.564  -0.881  0.00  0.00    +0.000 OA
BRANCH  18  19
ATOM     19  C   UNL     1      -2.355   0.737  -0.157  0.00  0.00    +0.000 C 
BRANCH  19  20
ATOM     20  C   UNL     1      -2.519   2.271  -0.657  0.00  0.00    +0.000 C 
ATOM     21  O   UNL     1      -1.544   3.011  -0.300  0.00  0.00    +0.000 OA
BRANCH  20  22
ATOM     22  O   UNL     1      -3.758   2.732  -0.182  0.00  0.00    +0.000 OA
BRANCH  22  23
ATOM     23  C   UNL     1      -3.937   4.028   0.349  0.00  0.00    +0.000 C 
ATOM     24  C   UNL     1      -3.597   4.051   1.818  0.00  0.00    +0.000 C 
ATOM     25  C   UNL     1      -3.209   5.080  -0.441  0.00  0.00    +0.000 C 
ENDBRANCH  22  23
ENDBRANCH  20  22
ENDBRANCH  19  20
BRANCH  19  26
ATOM     26  C   UNL     1      -3.193   0.166  -1.458  0.00  0.00    +0.000 C 
BRANCH  26  27
ATOM     27  C   UNL     1      -3.864  -1.050  -0.900  0.00  0.00    +0.000 C 
ATOM     28  O   UNL     1      -4.024  -2.081  -1.618  0.00  0.00    +0.000 OA
BRANCH  27  29
ATOM     29  O   UNL     1      -4.280  -1.129   0.430  0.00  0.00    +0.000 OA
BRANCH  29  31
ATOM     30  C   UNL     1      -3.733  -2.897   1.248  0.00  0.00    +0.000 C 
ATOM     31  C   UNL     1      -4.464  -2.383   1.084  0.00  0.00    +0.000 C 
ATOM     32  C   UNL     1      -5.932  -2.675   1.220  0.00  0.00    +0.000 C 
ENDBRANCH  29  31
ENDBRANCH  27  29
ENDBRANCH  26  27
ENDBRANCH  19  26
ENDBRANCH  18  19
ENDBRANCH   1  18
TORSDOF 11
