REMARK  Name = 
REMARK  10 active torsions:
REMARK  status: ('A' for Active; 'I' for Inactive)
REMARK    1  A    between atoms: C_2  and  O_3
REMARK    2  A    between atoms: O_3  and  C_4
REMARK    3  A    between atoms: C_4  and  C_6
REMARK    4  A    between atoms: C_6  and  C_7
REMARK    5  A    between atoms: C_7  and  O_9
REMARK    6  A    between atoms: O_9  and  C_10
REMARK    7  A    between atoms: C_13  and  O_14
REMARK    8  A    between atoms: O_14  and  C_15
REMARK    9  A    between atoms: C_21  and  C_22
REMARK   10  A    between atoms: C_23  and  C_24
REMARK                            x       y       z     vdW  Elec       q    Type
REMARK                         _______ _______ _______ _____ _____    ______ ____
ROOT
ATOM      1  C   UNL     1       0.431  -1.233  -0.681  0.00  0.00    +0.000 A 
ATOM      2  C   UNL     1       0.217  -2.576  -0.968  0.00  0.00    +0.000 A 
ATOM      3  C   UNL     1       1.005  -3.551  -0.367  0.00  0.00    +0.000 A 
ATOM      4  O   UNL     1       1.466  -4.664  -1.077  0.00  0.00    +0.000 OA
ATOM      5  C   UNL     1       1.658  -3.176   0.800  0.00  0.00    +0.000 A 
ATOM      6  C   UNL     1       1.808  -1.838   1.140  0.00  0.00    +0.000 A 
ATOM      7  C   UNL     1       1.332  -0.840   0.298  0.00  0.00    +0.000 A 
ENDROOT
BRANCH   7   8
ATOM      8  C   UNL     1       2.101   0.387   0.044  0.00  0.00    +0.000 C 
ATOM      9  C   UNL     1       2.995   0.501  -0.910  0.00  0.00    +0.000 C 
BRANCH   9  10
ATOM     10  C   UNL     1       4.403   0.853  -0.673  0.00  0.00    +0.000 A 
ATOM     11  C   UNL     1       4.722   1.996   0.050  0.00  0.00    +0.000 A 
ATOM     12  C   UNL     1       5.786   1.979   0.942  0.00  0.00    +0.000 A 
ATOM     13  O   UNL     1       5.981   3.018   1.857  0.00  0.00    +0.000 OA
ATOM     14  C   UNL     1       6.529   0.831   1.180  0.00  0.00    +0.000 A 
ATOM     15  C   UNL     1       6.338  -0.232   0.329  0.00  0.00    +0.000 A 
ATOM     16  O   UNL     1       7.172  -1.352   0.407  0.00  0.00    +0.000 OA
ATOM     17  C   UNL     1       5.344  -0.168  -0.635  0.00  0.00    +0.000 A 
ENDBRANCH   9  10
ENDBRANCH   7   8
BRANCH   1  18
ATOM     18  O   UNL     1      -0.443  -0.235  -1.126  0.00  0.00    +0.000 OA
BRANCH  18  21
ATOM     19  C   UNL     1      -3.376   0.808   0.087  0.00  0.00    +0.000 C 
ATOM     20  C   UNL     1      -2.752   0.636  -1.294  0.00  0.00    +0.000 C 
ATOM     21  C   UNL     1      -1.750  -0.288  -0.617  0.00  0.00    +0.000 C 
ATOM     22  C   UNL     1      -1.985   0.532   0.647  0.00  0.00    +0.000 C 
BRANCH  19  23
ATOM     23  C   UNL     1      -3.884   2.160   0.375  0.00  0.00    +0.000 C 
ATOM     24  O   UNL     1      -3.055   3.102   0.540  0.00  0.00    +0.000 OA
BRANCH  23  25
ATOM     25  O   UNL     1      -5.132   2.493  -0.140  0.00  0.00    +0.000 OA
BRANCH  25  27
ATOM     26  C   UNL     1      -6.589   3.810   1.191  0.00  0.00    +0.000 C 
ATOM     27  C   UNL     1      -5.649   3.790   0.005  0.00  0.00    +0.000 C 
ENDBRANCH  25  27
ENDBRANCH  23  25
ENDBRANCH  19  23
BRANCH  19  28
ATOM     28  C   UNL     1      -4.277  -0.298   0.450  0.00  0.00    +0.000 C 
ATOM     29  O   UNL     1      -5.514  -0.064   0.539  0.00  0.00    +0.000 OA
BRANCH  28  30
ATOM     30  O   UNL     1      -3.927  -1.589   0.060  0.00  0.00    +0.000 OA
BRANCH  30  31
ATOM     31  C   UNL     1      -4.866  -2.634   0.013  0.00  0.00    +0.000 C 
ATOM     32  C   UNL     1      -6.090  -2.158  -0.753  0.00  0.00    +0.000 C 
ENDBRANCH  30  31
ENDBRANCH  28  30
ENDBRANCH  19  28
ENDBRANCH  18  21
ENDBRANCH   1  18
TORSDOF 10
