REMARK  Name = 
REMARK  9 active torsions:
REMARK  status: ('A' for Active; 'I' for Inactive)
REMARK    1  A    between atoms: C_2  and  O_3
REMARK    2  A    between atoms: O_3  and  C_4
REMARK    3  A    between atoms: C_4  and  C_6
REMARK    4  A    between atoms: C_6  and  C_8
REMARK    5  A    between atoms: C_8  and  O_9
REMARK    6  A    between atoms: C_8  and  C_27
REMARK    7  A    between atoms: O_9  and  C_10
REMARK    8  A    between atoms: C_16  and  C_17
REMARK    9  A    between atoms: C_18  and  C_19
REMARK                            x       y       z     vdW  Elec       q    Type
REMARK                         _______ _______ _______ _____ _____    ______ ____
ROOT
ATOM      1  C   UNL     1       0.333  -1.129   0.025  0.00  0.00    +0.000 A 
ATOM      2  C   UNL     1       0.087  -2.477   0.264  0.00  0.00    +0.000 A 
ATOM      3  C   UNL     1      -1.103  -3.087  -0.130  0.00  0.00    +0.000 A 
ATOM      4  O   UNL     1      -1.375  -4.376   0.267  0.00  0.00    +0.000 OA
ATOM      5  C   UNL     1      -1.677  -2.505  -1.257  0.00  0.00    +0.000 A 
ATOM      6  C   UNL     1      -1.317  -1.220  -1.658  0.00  0.00    +0.000 A 
ATOM      7  C   UNL     1      -0.508  -0.437  -0.841  0.00  0.00    +0.000 A 
ENDROOT
BRANCH   7   8
ATOM      8  C   UNL     1      -0.897   0.889  -0.343  0.00  0.00    +0.000 C 
ATOM      9  C   UNL     1      -1.692   1.137   0.652  0.00  0.00    +0.000 C 
BRANCH   9  10
ATOM     10  C   UNL     1      -3.095   1.491   0.671  0.00  0.00    +0.000 A 
ATOM     11  C   UNL     1      -3.565   2.797   0.746  0.00  0.00    +0.000 A 
ATOM     12  C   UNL     1      -4.901   3.111   0.523  0.00  0.00    +0.000 A 
ATOM     13  O   UNL     1      -5.504   4.242   1.086  0.00  0.00    +0.000 OA
ATOM     14  C   UNL     1      -5.710   2.104   0.010  0.00  0.00    +0.000 A 
ATOM     15  C   UNL     1      -5.287   0.780   0.018  0.00  0.00    +0.000 A 
ATOM     16  O   UNL     1      -5.965  -0.219  -0.682  0.00  0.00    +0.000 OA
ATOM     17  C   UNL     1      -4.114   0.537   0.722  0.00  0.00    +0.000 A 
ENDBRANCH   9  10
ENDBRANCH   7   8
BRANCH   1  18
ATOM     18  O   UNL     1       1.610  -0.553   0.103  0.00  0.00    +0.000 OA
BRANCH  18  19
ATOM     19  C   UNL     1       2.576  -1.596  -0.483  0.00  0.00    +0.000 C 
BRANCH  19  20
ATOM     20  C   UNL     1       3.425  -1.871   0.876  0.00  0.00    +0.000 C 
ATOM     21  F   UNL     1       3.135  -1.036   1.844  0.00  0.00    +0.000 F 
ATOM     22  F   UNL     1       4.703  -2.138   0.532  0.00  0.00    +0.000 F 
ATOM     23  F   UNL     1       2.933  -3.123   1.260  0.00  0.00    +0.000 F 
ENDBRANCH  19  20
BRANCH  19  24
ATOM     24  C   UNL     1       3.698  -0.494  -1.168  0.00  0.00    +0.000 C 
ATOM     25  C   UNL     1       2.518   0.177  -2.063  0.00  0.00    +0.000 C 
BRANCH  24  26
ATOM     26  C   UNL     1       3.716   0.602  -0.015  0.00  0.00    +0.000 C 
ATOM     27  O   UNL     1       4.926   0.630   0.407  0.00  0.00    +0.000 OA
BRANCH  26  28
ATOM     28  O   UNL     1       3.377   1.917  -0.361  0.00  0.00    +0.000 OA
BRANCH  28  30
ATOM     29  C   UNL     1       5.552   2.792   0.083  0.00  0.00    +0.000 C 
ATOM     30  C   UNL     1       4.120   3.053   0.083  0.00  0.00    +0.000 C 
ENDBRANCH  28  30
ENDBRANCH  26  28
ENDBRANCH  24  26
ENDBRANCH  19  24
ENDBRANCH  18  19
ENDBRANCH   1  18
TORSDOF 9
