REMARK  Name = 
REMARK  9 active torsions:
REMARK  status: ('A' for Active; 'I' for Inactive)
REMARK    1  A    between atoms: C_2  and  O_3
REMARK    2  A    between atoms: O_3  and  C_4
REMARK    3  A    between atoms: C_4  and  C_6
REMARK    4  A    between atoms: C_6  and  C_8
REMARK    5  A    between atoms: C_8  and  O_9
REMARK    6  A    between atoms: C_8  and  C_27
REMARK    7  A    between atoms: O_9  and  C_10
REMARK    8  A    between atoms: C_16  and  C_17
REMARK    9  A    between atoms: C_18  and  C_19
REMARK                            x       y       z     vdW  Elec       q    Type
REMARK                         _______ _______ _______ _____ _____    ______ ____
ROOT
ATOM      1  C   UNL     1      -0.356  -1.839   0.402  0.00  0.00    +0.000 A 
ATOM      2  C   UNL     1      -1.125  -2.994   0.380  0.00  0.00    +0.000 A 
ATOM      3  C   UNL     1      -0.557  -4.259   0.425  0.00  0.00    +0.000 A 
ATOM      4  O   UNL     1      -1.328  -5.417   0.501  0.00  0.00    +0.000 OA
ATOM      5  C   UNL     1       0.773  -4.409   0.121  0.00  0.00    +0.000 A 
ATOM      6  C   UNL     1       1.563  -3.295   0.063  0.00  0.00    +0.000 A 
ATOM      7  C   UNL     1       1.014  -2.039   0.293  0.00  0.00    +0.000 A 
ENDROOT
BRANCH   7   8
ATOM      8  C   UNL     1       1.890  -0.908  -0.036  0.00  0.00    +0.000 C 
ATOM      9  C   UNL     1       2.270  -0.044   0.902  0.00  0.00    +0.000 C 
BRANCH   9  10
ATOM     10  C   UNL     1       3.338   0.925   0.631  0.00  0.00    +0.000 A 
ATOM     11  C   UNL     1       4.585   0.766   1.197  0.00  0.00    +0.000 A 
ATOM     12  C   UNL     1       5.646   1.580   0.824  0.00  0.00    +0.000 A 
ATOM     13  O   UNL     1       6.750   1.660   1.677  0.00  0.00    +0.000 OA
ATOM     14  C   UNL     1       5.504   2.481  -0.219  0.00  0.00    +0.000 A 
ATOM     15  C   UNL     1       4.306   2.477  -0.901  0.00  0.00    +0.000 A 
ATOM     16  O   UNL     1       4.057   3.396  -1.922  0.00  0.00    +0.000 OA
ATOM     17  C   UNL     1       3.295   1.597  -0.581  0.00  0.00    +0.000 A 
ENDBRANCH   9  10
ENDBRANCH   7   8
BRANCH   1  18
ATOM     18  O   UNL     1      -0.883  -0.717  -0.217  0.00  0.00    +0.000 OA
BRANCH  18  19
ATOM     19  C   UNL     1      -2.151  -0.142   0.425  0.00  0.00    +0.000 C 
BRANCH  19  20
ATOM     20  C   UNL     1      -1.798   1.388   0.054  0.00  0.00    +0.000 C 
ATOM     21  F   UNL     1      -0.858   1.591  -0.810  0.00  0.00    +0.000 F 
ATOM     22  F   UNL     1      -1.025   1.601   1.228  0.00  0.00    +0.000 F 
ATOM     23  F   UNL     1      -2.782   2.234   0.330  0.00  0.00    +0.000 F 
ENDBRANCH  19  20
BRANCH  19  24
ATOM     24  C   UNL     1      -3.094  -0.591  -0.938  0.00  0.00    +0.000 C 
ATOM     25  C   UNL     1      -2.219   0.134  -2.093  0.00  0.00    +0.000 C 
BRANCH  24  26
ATOM     26  C   UNL     1      -4.153   0.597  -0.823  0.00  0.00    +0.000 C 
ATOM     27  O   UNL     1      -4.696   0.917  -1.925  0.00  0.00    +0.000 OA
BRANCH  26  28
ATOM     28  O   UNL     1      -5.067   0.442   0.226  0.00  0.00    +0.000 OA
BRANCH  28  30
ATOM     29  C   UNL     1      -6.587   1.729   0.248  0.00  0.00    +0.000 C 
ATOM     30  C   UNL     1      -6.310   1.140   0.173  0.00  0.00    +0.000 C 
ENDBRANCH  28  30
ENDBRANCH  26  28
ENDBRANCH  24  26
ENDBRANCH  19  24
ENDBRANCH  18  19
ENDBRANCH   1  18
TORSDOF 9
