REMARK  Name = 
REMARK  9 active torsions:
REMARK  status: ('A' for Active; 'I' for Inactive)
REMARK    1  A    between atoms: C_2  and  O_3
REMARK    2  A    between atoms: O_3  and  C_4
REMARK    3  A    between atoms: C_4  and  C_6
REMARK    4  A    between atoms: C_6  and  C_8
REMARK    5  A    between atoms: C_8  and  O_9
REMARK    6  A    between atoms: C_8  and  C_27
REMARK    7  A    between atoms: O_9  and  C_10
REMARK    8  A    between atoms: C_16  and  C_17
REMARK    9  A    between atoms: C_18  and  C_19
REMARK                            x       y       z     vdW  Elec       q    Type
REMARK                         _______ _______ _______ _____ _____    ______ ____
ROOT
ATOM      1  C   UNL     1      -0.418   0.983  -0.492  0.00  0.00    +0.000 A 
ATOM      2  C   UNL     1      -0.815   1.942  -1.389  0.00  0.00    +0.000 A 
ATOM      3  C   UNL     1      -0.239   3.198  -1.329  0.00  0.00    +0.000 A 
ATOM      4  O   UNL     1      -0.901   4.291  -1.874  0.00  0.00    +0.000 OA
ATOM      5  C   UNL     1       0.706   3.471  -0.356  0.00  0.00    +0.000 A 
ATOM      6  C   UNL     1       1.146   2.490   0.524  0.00  0.00    +0.000 A 
ATOM      7  C   UNL     1       0.731   1.195   0.240  0.00  0.00    +0.000 A 
ENDROOT
BRANCH   7   8
ATOM      8  C   UNL     1       1.515   0.017   0.633  0.00  0.00    +0.000 C 
ATOM      9  C   UNL     1       2.595  -0.369  -0.001  0.00  0.00    +0.000 C 
BRANCH   9  10
ATOM     10  C   UNL     1       3.881  -0.651   0.622  0.00  0.00    +0.000 A 
ATOM     11  C   UNL     1       4.623  -1.756   0.222  0.00  0.00    +0.000 A 
ATOM     12  C   UNL     1       6.011  -1.720   0.169  0.00  0.00    +0.000 A 
ATOM     13  O   UNL     1       6.762  -2.851  -0.117  0.00  0.00    +0.000 OA
ATOM     14  C   UNL     1       6.683  -0.542   0.422  0.00  0.00    +0.000 A 
ATOM     15  C   UNL     1       5.993   0.456   1.100  0.00  0.00    +0.000 A 
ATOM     16  O   UNL     1       6.655   1.676   1.266  0.00  0.00    +0.000 OA
ATOM     17  C   UNL     1       4.635   0.317   1.276  0.00  0.00    +0.000 A 
ENDBRANCH   9  10
ENDBRANCH   7   8
BRANCH   1  18
ATOM     18  O   UNL     1      -1.105  -0.210  -0.281  0.00  0.00    +0.000 OA
BRANCH  18  19
ATOM     19  C   UNL     1      -2.631  -0.021  -0.511  0.00  0.00    +0.000 C 
BRANCH  19  20
ATOM     20  C   UNL     1      -2.894   0.140   1.119  0.00  0.00    +0.000 C 
ATOM     21  F   UNL     1      -2.325  -0.925   1.706  0.00  0.00    +0.000 F 
ATOM     22  F   UNL     1      -2.229   1.322   1.331  0.00  0.00    +0.000 F 
ATOM     23  F   UNL     1      -4.213   0.338   1.278  0.00  0.00    +0.000 F 
ENDBRANCH  19  20
BRANCH  19  24
ATOM     24  C   UNL     1      -2.895  -1.746  -0.505  0.00  0.00    +0.000 C 
ATOM     25  C   UNL     1      -2.848  -1.787  -2.147  0.00  0.00    +0.000 C 
BRANCH  24  26
ATOM     26  C   UNL     1      -4.489  -1.598  -0.378  0.00  0.00    +0.000 C 
ATOM     27  O   UNL     1      -4.857  -2.384   0.553  0.00  0.00    +0.000 OA
BRANCH  26  28
ATOM     28  O   UNL     1      -5.298  -1.505  -1.443  0.00  0.00    +0.000 OA
BRANCH  28  30
ATOM     29  C   UNL     1      -7.126  -1.818  -0.579  0.00  0.00    +0.000 C 
ATOM     30  C   UNL     1      -6.652  -1.952  -1.357  0.00  0.00    +0.000 C 
ENDBRANCH  28  30
ENDBRANCH  26  28
ENDBRANCH  24  26
ENDBRANCH  19  24
ENDBRANCH  18  19
ENDBRANCH   1  18
TORSDOF 9
