REMARK  Name = 
REMARK  9 active torsions:
REMARK  status: ('A' for Active; 'I' for Inactive)
REMARK    1  A    between atoms: C_2  and  O_3
REMARK    2  A    between atoms: O_3  and  C_4
REMARK    3  A    between atoms: C_4  and  C_6
REMARK    4  A    between atoms: C_6  and  C_8
REMARK    5  A    between atoms: C_8  and  O_9
REMARK    6  A    between atoms: C_8  and  C_27
REMARK    7  A    between atoms: O_9  and  C_10
REMARK    8  A    between atoms: C_16  and  C_17
REMARK    9  A    between atoms: C_18  and  C_19
REMARK                            x       y       z     vdW  Elec       q    Type
REMARK                         _______ _______ _______ _____ _____    ______ ____
ROOT
ATOM      1  C   UNL     1      -0.398  -0.009  -0.333  0.00  0.00    +0.000 A 
ATOM      2  C   UNL     1      -0.489   0.716   0.849  0.00  0.00    +0.000 A 
ATOM      3  C   UNL     1      -0.017   2.020   0.928  0.00  0.00    +0.000 A 
ATOM      4  O   UNL     1      -0.423   2.926   1.880  0.00  0.00    +0.000 OA
ATOM      5  C   UNL     1       0.723   2.526  -0.133  0.00  0.00    +0.000 A 
ATOM      6  C   UNL     1       1.085   1.699  -1.190  0.00  0.00    +0.000 A 
ATOM      7  C   UNL     1       0.678   0.368  -1.137  0.00  0.00    +0.000 A 
ENDROOT
BRANCH   7   8
ATOM      8  C   UNL     1       1.575  -0.642  -1.724  0.00  0.00    +0.000 C 
ATOM      9  C   UNL     1       2.253  -1.534  -1.056  0.00  0.00    +0.000 C 
BRANCH   9  10
ATOM     10  C   UNL     1       3.689  -1.443  -0.735  0.00  0.00    +0.000 A 
ATOM     11  C   UNL     1       4.606  -0.925  -1.643  0.00  0.00    +0.000 A 
ATOM     12  C   UNL     1       5.545   0.034  -1.276  0.00  0.00    +0.000 A 
ATOM     13  O   UNL     1       6.082   0.933  -2.198  0.00  0.00    +0.000 OA
ATOM     14  C   UNL     1       5.662   0.407   0.057  0.00  0.00    +0.000 A 
ATOM     15  C   UNL     1       5.056  -0.415   0.999  0.00  0.00    +0.000 A 
ATOM     16  O   UNL     1       5.179  -0.009   2.325  0.00  0.00    +0.000 OA
ATOM     17  C   UNL     1       4.076  -1.310   0.595  0.00  0.00    +0.000 A 
ENDBRANCH   9  10
ENDBRANCH   7   8
BRANCH   1  18
ATOM     18  O   UNL     1      -0.969  -1.145  -0.689  0.00  0.00    +0.000 OA
BRANCH  18  19
ATOM     19  C   UNL     1      -2.465  -1.476  -0.498  0.00  0.00    +0.000 C 
BRANCH  19  20
ATOM     20  C   UNL     1      -2.264  -1.921   1.082  0.00  0.00    +0.000 C 
ATOM     21  F   UNL     1      -1.025  -2.398   1.255  0.00  0.00    +0.000 F 
ATOM     22  F   UNL     1      -2.768  -1.025   1.898  0.00  0.00    +0.000 F 
ATOM     23  F   UNL     1      -3.108  -3.033   1.089  0.00  0.00    +0.000 F 
ENDBRANCH  19  20
BRANCH  19  24
ATOM     24  C   UNL     1      -2.919   0.168  -0.154  0.00  0.00    +0.000 C 
ATOM     25  C   UNL     1      -2.595   0.635  -1.688  0.00  0.00    +0.000 C 
BRANCH  24  26
ATOM     26  C   UNL     1      -4.468  -0.063  -0.508  0.00  0.00    +0.000 C 
ATOM     27  O   UNL     1      -5.116  -0.774   0.279  0.00  0.00    +0.000 OA
BRANCH  26  28
ATOM     28  O   UNL     1      -5.090   1.131  -0.893  0.00  0.00    +0.000 OA
BRANCH  28  30
ATOM     29  C   UNL     1      -5.851   2.902   0.486  0.00  0.00    +0.000 C 
ATOM     30  C   UNL     1      -6.244   1.658  -0.292  0.00  0.00    +0.000 C 
ENDBRANCH  28  30
ENDBRANCH  26  28
ENDBRANCH  24  26
ENDBRANCH  19  24
ENDBRANCH  18  19
ENDBRANCH   1  18
TORSDOF 9
