REMARK  Name = 
REMARK  6 active torsions:
REMARK  status: ('A' for Active; 'I' for Inactive)
REMARK    1  A    between atoms: O_2  and  C_3
REMARK    2  A    between atoms: C_5  and  C_6
REMARK    3  A    between atoms: C_6  and  O_7
REMARK    4  A    between atoms: O_7  and  C_8
REMARK    5  A    between atoms: C_14  and  C_15
REMARK    6  A    between atoms: C_16  and  C_17
REMARK                            x       y       z     vdW  Elec       q    Type
REMARK                         _______ _______ _______ _____ _____    ______ ____
ROOT
ATOM      1  C   UNL     1       0.179   0.633   0.234  0.00  0.00    +0.000 A 
ATOM      2  C   UNL     1       0.193   1.945  -0.229  0.00  0.00    +0.000 A 
ATOM      3  C   UNL     1       0.517   2.246  -1.547  0.00  0.00    +0.000 A 
ATOM      4  O   UNL     1       1.329   3.331  -1.889  0.00  0.00    +0.000 OA
ATOM      5  C   UNL     1       0.478   1.196  -2.458  0.00  0.00    +0.000 A 
ATOM      6  C   UNL     1       0.437  -0.106  -1.971  0.00  0.00    +0.000 A 
ATOM      7  C   UNL     1       0.565  -0.396  -0.620  0.00  0.00    +0.000 A 
ENDROOT
BRANCH   7   8
ATOM      8  C   UNL     1       1.508  -1.395  -0.103  0.00  0.00    +0.000 C 
ATOM      9  C   UNL     1       2.595  -1.804  -0.674  0.00  0.00    +0.000 C 
BRANCH   9  10
ATOM     10  C   UNL     1       3.960  -1.358  -0.345  0.00  0.00    +0.000 A 
ATOM     11  C   UNL     1       4.545  -1.576   0.869  0.00  0.00    +0.000 A 
ATOM     12  C   UNL     1       5.640  -0.808   1.223  0.00  0.00    +0.000 A 
ATOM     13  O   UNL     1       6.028  -0.881   2.561  0.00  0.00    +0.000 OA
ATOM     14  C   UNL     1       5.912   0.325   0.466  0.00  0.00    +0.000 A 
ATOM     15  C   UNL     1       5.350   0.516  -0.773  0.00  0.00    +0.000 A 
ATOM     16  O   UNL     1       5.697   1.560  -1.614  0.00  0.00    +0.000 OA
ATOM     17  C   UNL     1       4.641  -0.573  -1.270  0.00  0.00    +0.000 A 
ENDBRANCH   9  10
ENDBRANCH   7   8
BRANCH   1  18
ATOM     18  O   UNL     1      -0.010   0.307   1.578  0.00  0.00    +0.000 OA
BRANCH  18  19
ATOM     19  C   UNL     1      -1.336   0.321   2.111  0.00  0.00    +0.000 C 
BRANCH  19  22
ATOM     20  C   UNL     1      -3.169  -2.305   0.584  0.00  0.00    +0.000 C 
ATOM     21  O   UNL     1      -2.223  -1.702   1.612  0.00  0.00    +0.000 OA
ATOM     22  C   UNL     1      -2.189  -0.389   0.898  0.00  0.00    +0.000 C 
ATOM     23  C   UNL     1      -3.700   0.030   1.558  0.00  0.00    +0.000 C 
ATOM     24  O   UNL     1      -4.125   0.679   0.278  0.00  0.00    +0.000 OA
ATOM     25  C   UNL     1      -5.380   0.237   0.081  0.00  0.00    +0.000 C 
ATOM     26  C   UNL     1      -6.451   0.617   1.012  0.00  0.00    +0.000 C 
ATOM     27  C   UNL     1      -5.782   0.691  -1.310  0.00  0.00    +0.000 C 
ATOM     28  O   UNL     1      -5.089  -1.079  -0.037  0.00  0.00    +0.000 OA
ATOM     29  C   UNL     1      -4.484  -1.439   1.274  0.00  0.00    +0.000 C 
BRANCH  20  31
ATOM     30  C   UNL     1      -2.737  -1.514  -0.908  0.00  0.00    +0.000 C 
ATOM     31  O   UNL     1      -2.899  -1.363  -0.591  0.00  0.00    +0.000 OA
ENDBRANCH  20  31
ENDBRANCH  19  22
ENDBRANCH  18  19
ENDBRANCH   1  18
TORSDOF 6
