REMARK  Name = 
REMARK  10 active torsions:
REMARK  status: ('A' for Active; 'I' for Inactive)
REMARK    1  A    between atoms: O_2  and  C_3
REMARK    2  A    between atoms: C_6  and  C_7
REMARK    3  A    between atoms: C_8  and  C_9
REMARK    4  A    between atoms: C_11  and  O_12
REMARK    5  A    between atoms: C_14  and  O_15
REMARK    6  A    between atoms: C_17  and  O_18
REMARK    7  A    between atoms: C_21  and  O_22
REMARK    8  A    between atoms: O_22  and  P_23
REMARK    9  A    between atoms: C_27  and  O_28
REMARK   10  A    between atoms: O_28  and  P_29
REMARK                            x       y       z     vdW  Elec       q    Type
REMARK                         _______ _______ _______ _____ _____    ______ ____
ROOT
ATOM      1  C   UNL     1      -1.720  -0.733   1.927  0.00  0.00    +0.000 A 
ATOM      2  C   UNL     1      -0.580  -1.490   1.685  0.00  0.00    +0.000 A 
ATOM      3  C   UNL     1      -0.022  -1.478   0.413  0.00  0.00    +0.000 A 
ATOM      4  C   UNL     1      -0.591  -0.618  -0.520  0.00  0.00    +0.000 A 
ATOM      5  C   UNL     1      -1.940  -0.303  -0.403  0.00  0.00    +0.000 A 
ATOM      6  C   UNL     1      -2.412  -0.118   0.891  0.00  0.00    +0.000 A 
ENDROOT
BRANCH   1   8
ATOM      7  C   UNL     1      -2.962  -2.199   3.354  0.00  0.00    +0.000 C 
ATOM      8  O   UNL     1      -2.340  -0.936   3.158  0.00  0.00    +0.000 OA
ENDBRANCH   1   8
BRANCH   4   9
ATOM      9  C   UNL     1       0.009  -0.419  -1.836  0.00  0.00    +0.000 C 
ATOM     10  C   UNL     1       1.204   0.124  -1.929  0.00  0.00    +0.000 C 
BRANCH  10  11
ATOM     11  C   UNL     1       2.080   0.333  -0.769  0.00  0.00    +0.000 A 
ATOM     12  C   UNL     1       3.028  -0.661  -0.559  0.00  0.00    +0.000 A 
ATOM     13  C   UNL     1       4.195  -0.368   0.135  0.00  0.00    +0.000 A 
ATOM     14  C   UNL     1       4.667   0.933   0.182  0.00  0.00    +0.000 A 
ATOM     15  C   UNL     1       3.726   1.932   0.027  0.00  0.00    +0.000 A 
ATOM     16  C   UNL     1       2.466   1.621  -0.443  0.00  0.00    +0.000 A 
BRANCH  13  17
ATOM     17  O   UNL     1       5.091  -1.368   0.474  0.00  0.00    +0.000 OA
ATOM     18  C   UNL     1       5.126  -2.562  -0.291  0.00  0.00    +0.000 C 
ENDBRANCH  13  17
BRANCH  14  19
ATOM     19  O   UNL     1       6.018   1.240  -0.013  0.00  0.00    +0.000 OA
ATOM     20  C   UNL     1       6.996   0.239  -0.223  0.00  0.00    +0.000 C 
ENDBRANCH  14  19
BRANCH  15  21
ATOM     21  O   UNL     1       4.199   3.246   0.076  0.00  0.00    +0.000 OA
ATOM     22  C   UNL     1       4.759   3.825   1.233  0.00  0.00    +0.000 C 
ENDBRANCH  15  21
ENDBRANCH  10  11
ENDBRANCH   4   9
BRANCH   5  23
ATOM     23  O   UNL     1      -2.805  -0.326  -1.503  0.00  0.00    +0.000 OA
BRANCH  23  24
ATOM     24  P   UNL     1      -3.767  -1.746  -1.668  0.00  0.00    +0.000 P 
ATOM     25  O   UNL     1      -2.883  -2.796  -2.283  0.00  0.00    +0.000 OA
ATOM     26  O   UNL     1      -4.269  -2.329  -0.161  0.00  0.00    +0.000 OA
ATOM     27  O   UNL     1      -5.088  -1.471  -2.697  0.00  0.00    +0.000 OA
ENDBRANCH  23  24
ENDBRANCH   5  23
BRANCH   6  28
ATOM     28  O   UNL     1      -3.743   0.256   1.096  0.00  0.00    +0.000 OA
BRANCH  28  29
ATOM     29  P   UNL     1      -4.411   1.683   0.455  0.00  0.00    +0.000 P 
ATOM     30  O   UNL     1      -3.422   2.365  -0.478  0.00  0.00    +0.000 OA
ATOM     31  O   UNL     1      -5.802   1.370  -0.471  0.00  0.00    +0.000 OA
ATOM     32  O   UNL     1      -4.809   2.753   1.713  0.00  0.00    +0.000 OA
ENDBRANCH  28  29
ENDBRANCH   6  28
TORSDOF 10
