REMARK  Name = 
REMARK  6 active torsions:
REMARK  status: ('A' for Active; 'I' for Inactive)
REMARK    1  A    between atoms: O_2  and  C_3
REMARK    2  A    between atoms: C_5  and  C_6
REMARK    3  A    between atoms: C_6  and  O_7
REMARK    4  A    between atoms: O_7  and  C_8
REMARK    5  A    between atoms: C_14  and  C_15
REMARK    6  A    between atoms: C_16  and  C_17
REMARK                            x       y       z     vdW  Elec       q    Type
REMARK                         _______ _______ _______ _____ _____    ______ ____
ROOT
ATOM      1  C   UNL     1       0.304   1.154  -0.351  0.00  0.00    +0.000 A 
ATOM      2  C   UNL     1       0.029   2.385  -0.913  0.00  0.00    +0.000 A 
ATOM      3  C   UNL     1       0.506   3.551  -0.344  0.00  0.00    +0.000 A 
ATOM      4  O   UNL     1      -0.132   4.780  -0.485  0.00  0.00    +0.000 OA
ATOM      5  C   UNL     1       1.550   3.415   0.564  0.00  0.00    +0.000 A 
ATOM      6  C   UNL     1       1.615   2.228   1.284  0.00  0.00    +0.000 A 
ATOM      7  C   UNL     1       0.998   1.066   0.836  0.00  0.00    +0.000 A 
ENDROOT
BRANCH   7   8
ATOM      8  C   UNL     1       1.692  -0.205   1.091  0.00  0.00    +0.000 C 
ATOM      9  C   UNL     1       2.406  -0.853   0.220  0.00  0.00    +0.000 C 
BRANCH   9  10
ATOM     10  C   UNL     1       3.848  -1.128   0.331  0.00  0.00    +0.000 A 
ATOM     11  C   UNL     1       4.352  -2.421   0.229  0.00  0.00    +0.000 A 
ATOM     12  C   UNL     1       5.697  -2.597  -0.083  0.00  0.00    +0.000 A 
ATOM     13  O   UNL     1       6.374  -3.777   0.193  0.00  0.00    +0.000 OA
ATOM     14  C   UNL     1       6.398  -1.522  -0.601  0.00  0.00    +0.000 A 
ATOM     15  C   UNL     1       5.890  -0.252  -0.604  0.00  0.00    +0.000 A 
ATOM     16  O   UNL     1       6.696   0.799  -1.018  0.00  0.00    +0.000 OA
ATOM     17  C   UNL     1       4.764  -0.094   0.168  0.00  0.00    +0.000 A 
ENDBRANCH   9  10
ENDBRANCH   7   8
BRANCH   1  18
ATOM     18  O   UNL     1      -0.392   0.033  -0.733  0.00  0.00    +0.000 OA
BRANCH  18  19
ATOM     19  C   UNL     1      -1.026  -0.888   0.052  0.00  0.00    +0.000 C 
BRANCH  19  22
ATOM     20  C   UNL     1      -3.933   0.920   0.274  0.00  0.00    +0.000 C 
ATOM     21  O   UNL     1      -2.598   0.773  -0.519  0.00  0.00    +0.000 OA
ATOM     22  C   UNL     1      -2.442  -0.229   0.627  0.00  0.00    +0.000 C 
ATOM     23  C   UNL     1      -3.357  -1.439  -0.217  0.00  0.00    +0.000 C 
ATOM     24  O   UNL     1      -4.137  -1.790   1.034  0.00  0.00    +0.000 OA
ATOM     25  C   UNL     1      -5.290  -2.112   0.310  0.00  0.00    +0.000 C 
ATOM     26  C   UNL     1      -4.953  -2.760  -1.021  0.00  0.00    +0.000 C 
ATOM     27  C   UNL     1      -6.267  -2.963   1.004  0.00  0.00    +0.000 C 
ATOM     28  O   UNL     1      -5.597  -0.784   0.208  0.00  0.00    +0.000 OA
ATOM     29  C   UNL     1      -4.548  -0.339  -0.777  0.00  0.00    +0.000 C 
BRANCH  20  31
ATOM     30  C   UNL     1      -4.010   3.012  -0.176  0.00  0.00    +0.000 C 
ATOM     31  O   UNL     1      -4.437   2.036  -0.689  0.00  0.00    +0.000 OA
ENDBRANCH  20  31
ENDBRANCH  19  22
ENDBRANCH  18  19
ENDBRANCH   1  18
TORSDOF 6
