REMARK  Name = 
REMARK  5 active torsions:
REMARK  status: ('A' for Active; 'I' for Inactive)
REMARK    1  A    between atoms: C_5  and  C_6
REMARK    2  A    between atoms: C_7  and  C_8
REMARK    3  A    between atoms: C_16  and  O_17
REMARK    4  A    between atoms: O_17  and  C_18
REMARK    5  A    between atoms: N_21  and  C_22
REMARK                            x       y       z     vdW  Elec       q    Type
REMARK                         _______ _______ _______ _____ _____    ______ ____
ROOT
ATOM      1  O   UNL     1      -0.471  -2.370   2.203  0.00  0.00    +0.000 OA
ATOM      2  C   UNL     1      -0.411  -2.202   0.815  0.00  0.00    +0.000 A 
ATOM      3  C   UNL     1      -1.220  -2.957  -0.026  0.00  0.00    +0.000 A 
ATOM      4  C   UNL     1      -1.861  -2.368  -1.109  0.00  0.00    +0.000 A 
ATOM      5  C   UNL     1      -1.572  -1.064  -1.490  0.00  0.00    +0.000 A 
ATOM      6  C   UNL     1      -0.501  -0.466  -0.844  0.00  0.00    +0.000 A 
ATOM      7  C   UNL     1       0.111  -1.044   0.252  0.00  0.00    +0.000 A 
ENDROOT
BRANCH   5   8
ATOM      8  C   UNL     1      -2.683  -0.263  -2.022  0.00  0.00    +0.000 C 
ATOM      9  C   UNL     1      -3.080   0.869  -1.485  0.00  0.00    +0.000 C 
BRANCH   9  10
ATOM     10  C   UNL     1      -4.470   1.135  -1.089  0.00  0.00    +0.000 A 
ATOM     11  C   UNL     1      -5.513   0.406  -1.647  0.00  0.00    +0.000 A 
ATOM     12  C   UNL     1      -6.663   0.099  -0.947  0.00  0.00    +0.000 A 
ATOM     13  O   UNL     1      -7.488  -0.933  -1.406  0.00  0.00    +0.000 OA
ATOM     14  C   UNL     1      -6.707   0.323   0.417  0.00  0.00    +0.000 A 
ATOM     15  C   UNL     1      -5.792   1.190   0.948  0.00  0.00    +0.000 A 
ATOM     16  O   UNL     1      -5.984   1.611   2.262  0.00  0.00    +0.000 OA
ATOM     17  C   UNL     1      -4.667   1.554   0.221  0.00  0.00    +0.000 A 
ENDBRANCH   9  10
ENDBRANCH   5   8
BRANCH   6  18
ATOM     18  O   UNL     1      -0.099   0.768  -1.365  0.00  0.00    +0.000 OA
BRANCH  18  19
ATOM     19  C   UNL     1       1.294   1.056  -1.270  0.00  0.00    +0.000 C 
ATOM     20  C   UNL     1       1.540   1.524   0.136  0.00  0.00    +0.000 C 
ATOM     21  C   UNL     1       3.035   1.711   0.351  0.00  0.00    +0.000 C 
ATOM     22  N   UNL     1       3.643   0.413   0.083  0.00  0.00    +0.000 N 
ATOM     23  C   UNL     1       3.467  -0.208  -1.203  0.00  0.00    +0.000 C 
ATOM     24  C   UNL     1       2.024  -0.210  -1.616  0.00  0.00    +0.000 C 
BRANCH  22  25
ATOM     25  C   UNL     1       4.795   0.082   0.845  0.00  0.00    +0.000 A 
ATOM     26  C   UNL     1       5.953  -0.318   0.190  0.00  0.00    +0.000 A 
ATOM     27  C   UNL     1       7.060  -0.508   1.007  0.00  0.00    +0.000 A 
ATOM     28 CL   UNL     1       8.538  -1.235   0.433  0.00  0.00    +0.000 Cl
ATOM     29  N   UNL     1       7.031  -0.129   2.308  0.00  0.00    +0.000 NA
ATOM     30  C   UNL     1       5.889   0.232   2.903  0.00  0.00    +0.000 A 
ATOM     31  N   UNL     1       4.803   0.435   2.148  0.00  0.00    +0.000 NA
ENDBRANCH  22  25
ENDBRANCH  18  19
ENDBRANCH   6  18
TORSDOF 5
