REMARK  Name = 
REMARK  5 active torsions:
REMARK  status: ('A' for Active; 'I' for Inactive)
REMARK    1  A    between atoms: C_5  and  C_6
REMARK    2  A    between atoms: C_7  and  C_8
REMARK    3  A    between atoms: C_16  and  O_17
REMARK    4  A    between atoms: O_17  and  C_18
REMARK    5  A    between atoms: N_21  and  C_22
REMARK                            x       y       z     vdW  Elec       q    Type
REMARK                         _______ _______ _______ _____ _____    ______ ____
ROOT
ATOM      1  O   UNL     1      -1.207  -2.040   3.388  0.00  0.00    +0.000 OA
ATOM      2  C   UNL     1      -0.878  -1.871   2.039  0.00  0.00    +0.000 A 
ATOM      3  C   UNL     1      -1.650  -2.508   1.077  0.00  0.00    +0.000 A 
ATOM      4  C   UNL     1      -1.965  -1.880  -0.121  0.00  0.00    +0.000 A 
ATOM      5  C   UNL     1      -1.522  -0.591  -0.395  0.00  0.00    +0.000 A 
ATOM      6  C   UNL     1      -0.525  -0.099   0.438  0.00  0.00    +0.000 A 
ATOM      7  C   UNL     1      -0.148  -0.777   1.591  0.00  0.00    +0.000 A 
ENDROOT
BRANCH   5   8
ATOM      8  C   UNL     1      -2.423   0.398  -1.006  0.00  0.00    +0.000 C 
ATOM      9  C   UNL     1      -3.253   1.135  -0.306  0.00  0.00    +0.000 C 
BRANCH   9  10
ATOM     10  C   UNL     1      -4.688   1.250  -0.593  0.00  0.00    +0.000 A 
ATOM     11  C   UNL     1      -5.233   2.473  -0.966  0.00  0.00    +0.000 A 
ATOM     12  C   UNL     1      -6.461   2.900  -0.497  0.00  0.00    +0.000 A 
ATOM     13  O   UNL     1      -6.859   4.232  -0.519  0.00  0.00    +0.000 OA
ATOM     14  C   UNL     1      -7.292   1.990   0.135  0.00  0.00    +0.000 A 
ATOM     15  C   UNL     1      -6.847   0.706   0.381  0.00  0.00    +0.000 A 
ATOM     16  O   UNL     1      -7.697  -0.351   0.673  0.00  0.00    +0.000 OA
ATOM     17  C   UNL     1      -5.516   0.451   0.187  0.00  0.00    +0.000 A 
ENDBRANCH   9  10
ENDBRANCH   5   8
BRANCH   6  18
ATOM     18  O   UNL     1       0.239   0.941  -0.096  0.00  0.00    +0.000 OA
BRANCH  18  19
ATOM     19  C   UNL     1       1.580   0.616  -0.427  0.00  0.00    +0.000 C 
ATOM     20  C   UNL     1       1.657  -0.442  -1.507  0.00  0.00    +0.000 C 
ATOM     21  C   UNL     1       3.119  -0.592  -1.865  0.00  0.00    +0.000 C 
ATOM     22  N   UNL     1       3.782  -1.125  -0.680  0.00  0.00    +0.000 N 
ATOM     23  C   UNL     1       2.937  -1.287   0.499  0.00  0.00    +0.000 C 
ATOM     24  C   UNL     1       2.326   0.067   0.782  0.00  0.00    +0.000 C 
BRANCH  22  25
ATOM     25  C   UNL     1       5.138  -0.750  -0.472  0.00  0.00    +0.000 A 
ATOM     26  C   UNL     1       5.796  -1.133   0.689  0.00  0.00    +0.000 A 
ATOM     27  C   UNL     1       7.123  -0.806   0.889  0.00  0.00    +0.000 A 
ATOM     28  C   UNL     1       7.841  -0.395  -0.209  0.00  0.00    +0.000 A 
ATOM     29 CL   UNL     1       9.579  -0.468  -0.255  0.00  0.00    +0.000 Cl
ATOM     30  N   UNL     1       7.181   0.046  -1.280  0.00  0.00    +0.000 NA
ATOM     31  N   UNL     1       5.865  -0.090  -1.406  0.00  0.00    +0.000 NA
ENDBRANCH  22  25
ENDBRANCH  18  19
ENDBRANCH   6  18
TORSDOF 5
