REMARK  Name = 
REMARK  6 active torsions:
REMARK  status: ('A' for Active; 'I' for Inactive)
REMARK    1  A    between atoms: C_2  and  O_5
REMARK    2  A    between atoms: O_5  and  C_6
REMARK    3  A    between atoms: C_13  and  O_14
REMARK    4  A    between atoms: O_14  and  C_15
REMARK    5  A    between atoms: C_21  and  C_22
REMARK    6  A    between atoms: C_23  and  C_24
REMARK                            x       y       z     vdW  Elec       q    Type
REMARK                         _______ _______ _______ _____ _____    ______ ____
ROOT
ATOM      1  C   UNL     1       0.527   0.409   1.123  0.00  0.00    +0.000 A 
ATOM      2  C   UNL     1       0.319  -0.650   2.002  0.00  0.00    +0.000 A 
ATOM      3  C   UNL     1       1.347  -1.165   2.786  0.00  0.00    +0.000 A 
ATOM      4  O   UNL     1       1.635  -2.536   2.790  0.00  0.00    +0.000 OA
ATOM      5  C   UNL     1       2.382  -0.266   3.031  0.00  0.00    +0.000 A 
ATOM      6  C   UNL     1       2.459   0.930   2.319  0.00  0.00    +0.000 A 
ATOM      7  C   UNL     1       1.729   1.107   1.146  0.00  0.00    +0.000 A 
ENDROOT
BRANCH   7   8
ATOM      8  C   UNL     1       2.360   1.358  -0.157  0.00  0.00    +0.000 C 
ATOM      9  C   UNL     1       2.810   0.481  -0.995  0.00  0.00    +0.000 C 
BRANCH   9  10
ATOM     10  C   UNL     1       4.191   0.063  -1.212  0.00  0.00    +0.000 A 
ATOM     11  C   UNL     1       5.065   0.726  -2.065  0.00  0.00    +0.000 A 
ATOM     12  C   UNL     1       6.441   0.584  -1.915  0.00  0.00    +0.000 A 
ATOM     13  O   UNL     1       7.349   0.963  -2.889  0.00  0.00    +0.000 OA
ATOM     14  C   UNL     1       6.923  -0.021  -0.761  0.00  0.00    +0.000 A 
ATOM     15  C   UNL     1       6.068  -0.762   0.046  0.00  0.00    +0.000 A 
ATOM     16  O   UNL     1       6.475  -1.219   1.287  0.00  0.00    +0.000 OA
ATOM     17  C   UNL     1       4.791  -0.952  -0.468  0.00  0.00    +0.000 A 
ENDBRANCH   9  10
ENDBRANCH   7   8
BRANCH   1  18
ATOM     18  O   UNL     1      -0.415   0.886   0.233  0.00  0.00    +0.000 OA
BRANCH  18  26
ATOM     19  C   UNL     1      -4.847   0.297  -0.487  0.00  0.00    +0.000 C 
ATOM     20  O   UNL     1      -5.242  -0.445   0.463  0.00  0.00    +0.000 OA
ATOM     21  N   UNL     1      -3.582  -0.076  -1.040  0.00  0.00    +0.000 N 
ATOM     22  C   UNL     1      -3.438  -1.516  -1.236  0.00  0.00    +0.000 C 
ATOM     23  C   UNL     1      -3.171  -2.123   0.126  0.00  0.00    +0.000 C 
ATOM     24  O   UNL     1      -1.783  -2.217   0.319  0.00  0.00    +0.000 OA
ATOM     25  C   UNL     1      -1.241  -1.163  -0.436  0.00  0.00    +0.000 C 
ATOM     26  C   UNL     1      -1.767   0.144   0.461  0.00  0.00    +0.000 C 
ATOM     27  C   UNL     1      -2.462   0.850  -0.884  0.00  0.00    +0.000 C 
BRANCH  19  28
ATOM     28  O   UNL     1      -5.843   0.749  -1.356  0.00  0.00    +0.000 OA
BRANCH  28  30
ATOM     29  C   UNL     1      -7.759   1.168  -1.466  0.00  0.00    +0.000 C 
ATOM     30  C   UNL     1      -7.085   1.206  -0.826  0.00  0.00    +0.000 C 
ATOM     31  C   UNL     1      -7.413   0.349   0.389  0.00  0.00    +0.000 C 
ATOM     32  C   UNL     1      -6.824   2.623  -0.328  0.00  0.00    +0.000 C 
ENDBRANCH  28  30
ENDBRANCH  19  28
ENDBRANCH  18  26
ENDBRANCH   1  18
TORSDOF 6
