REMARK  Name = 
REMARK  6 active torsions:
REMARK  status: ('A' for Active; 'I' for Inactive)
REMARK    1  A    between atoms: C_2  and  O_5
REMARK    2  A    between atoms: O_5  and  C_6
REMARK    3  A    between atoms: C_13  and  O_14
REMARK    4  A    between atoms: O_14  and  C_15
REMARK    5  A    between atoms: C_21  and  C_22
REMARK    6  A    between atoms: C_23  and  C_24
REMARK                            x       y       z     vdW  Elec       q    Type
REMARK                         _______ _______ _______ _____ _____    ______ ____
ROOT
ATOM      1  C   UNL     1      -0.353   0.307  -1.697  0.00  0.00    +0.000 A 
ATOM      2  C   UNL     1       0.309   0.389  -2.908  0.00  0.00    +0.000 A 
ATOM      3  C   UNL     1      -0.242   1.057  -3.973  0.00  0.00    +0.000 A 
ATOM      4  O   UNL     1       0.411   0.961  -5.201  0.00  0.00    +0.000 OA
ATOM      5  C   UNL     1      -1.548   1.466  -3.860  0.00  0.00    +0.000 A 
ATOM      6  C   UNL     1      -2.264   1.230  -2.696  0.00  0.00    +0.000 A 
ATOM      7  C   UNL     1      -1.717   0.484  -1.659  0.00  0.00    +0.000 A 
ENDROOT
BRANCH   7   8
ATOM      8  C   UNL     1      -2.608  -0.360  -0.857  0.00  0.00    +0.000 C 
ATOM      9  C   UNL     1      -3.083  -0.004   0.318  0.00  0.00    +0.000 C 
BRANCH   9  10
ATOM     10  C   UNL     1      -4.448  -0.325   0.718  0.00  0.00    +0.000 A 
ATOM     11  C   UNL     1      -5.361  -0.917  -0.142  0.00  0.00    +0.000 A 
ATOM     12  C   UNL     1      -6.680  -0.997   0.214  0.00  0.00    +0.000 A 
ATOM     13  O   UNL     1      -7.584  -1.412  -0.764  0.00  0.00    +0.000 OA
ATOM     14  C   UNL     1      -7.089  -0.394   1.378  0.00  0.00    +0.000 A 
ATOM     15  C   UNL     1      -6.143  -0.179   2.362  0.00  0.00    +0.000 A 
ATOM     16  O   UNL     1      -6.527  -0.076   3.695  0.00  0.00    +0.000 OA
ATOM     17  C   UNL     1      -4.796  -0.196   2.035  0.00  0.00    +0.000 A 
ENDBRANCH   9  10
ENDBRANCH   7   8
BRANCH   1  18
ATOM     18  O   UNL     1       0.246  -0.172  -0.535  0.00  0.00    +0.000 OA
BRANCH  18  26
ATOM     19  C   UNL     1       4.174   0.182   1.506  0.00  0.00    +0.000 C 
ATOM     20  O   UNL     1       4.638   1.182   0.877  0.00  0.00    +0.000 OA
ATOM     21  N   UNL     1       3.491  -0.777   0.690  0.00  0.00    +0.000 N 
ATOM     22  C   UNL     1       4.387  -1.347  -0.311  0.00  0.00    +0.000 C 
ATOM     23  C   UNL     1       3.864  -1.155  -1.708  0.00  0.00    +0.000 C 
ATOM     24  O   UNL     1       3.437   0.135  -1.966  0.00  0.00    +0.000 OA
ATOM     25  C   UNL     1       2.377   0.520  -1.153  0.00  0.00    +0.000 C 
ATOM     26  C   UNL     1       1.591  -0.924  -0.827  0.00  0.00    +0.000 C 
ATOM     27  C   UNL     1       2.035  -0.845   0.788  0.00  0.00    +0.000 C 
BRANCH  19  28
ATOM     28  O   UNL     1       4.962  -0.284   2.563  0.00  0.00    +0.000 OA
BRANCH  28  30
ATOM     29  C   UNL     1       6.718   0.379   2.640  0.00  0.00    +0.000 C 
ATOM     30  C   UNL     1       6.033   0.522   3.042  0.00  0.00    +0.000 C 
ATOM     31  C   UNL     1       6.204   0.290   4.536  0.00  0.00    +0.000 C 
ATOM     32  C   UNL     1       5.566   1.964   2.894  0.00  0.00    +0.000 C 
ENDBRANCH  28  30
ENDBRANCH  19  28
ENDBRANCH  18  26
ENDBRANCH   1  18
TORSDOF 6
