REMARK  Name = 
REMARK  7 active torsions:
REMARK  status: ('A' for Active; 'I' for Inactive)
REMARK    1  A    between atoms: C_2  and  O_5
REMARK    2  A    between atoms: O_5  and  C_6
REMARK    3  A    between atoms: C_12  and  C_13
REMARK    4  A    between atoms: C_13  and  O_14
REMARK    5  A    between atoms: O_14  and  C_15
REMARK    6  A    between atoms: C_21  and  C_22
REMARK    7  A    between atoms: C_23  and  C_24
REMARK                            x       y       z     vdW  Elec       q    Type
REMARK                         _______ _______ _______ _____ _____    ______ ____
ROOT
ATOM      1  C   UNL     1       0.382  -0.848   0.758  0.00  0.00    +0.000 A 
ATOM      2  C   UNL     1      -0.148  -2.087   0.423  0.00  0.00    +0.000 A 
ATOM      3  C   UNL     1       0.653  -3.222   0.458  0.00  0.00    +0.000 A 
ATOM      4  O   UNL     1       0.648  -4.184  -0.535  0.00  0.00    +0.000 OA
ATOM      5  C   UNL     1       1.792  -3.131   1.249  0.00  0.00    +0.000 A 
ATOM      6  C   UNL     1       2.223  -1.907   1.749  0.00  0.00    +0.000 A 
ATOM      7  C   UNL     1       1.653  -0.720   1.302  0.00  0.00    +0.000 A 
ENDROOT
BRANCH   7   8
ATOM      8  C   UNL     1       2.470   0.418   0.854  0.00  0.00    +0.000 C 
ATOM      9  C   UNL     1       2.786   0.629  -0.417  0.00  0.00    +0.000 C 
BRANCH   9  10
ATOM     10  C   UNL     1       4.180   0.642  -0.893  0.00  0.00    +0.000 A 
ATOM     11  C   UNL     1       5.010   1.640  -0.398  0.00  0.00    +0.000 A 
ATOM     12  C   UNL     1       6.348   1.391  -0.122  0.00  0.00    +0.000 A 
ATOM     13  O   UNL     1       7.189   2.476   0.135  0.00  0.00    +0.000 OA
ATOM     14  C   UNL     1       6.853   0.103  -0.156  0.00  0.00    +0.000 A 
ATOM     15  C   UNL     1       6.062  -0.886  -0.721  0.00  0.00    +0.000 A 
ATOM     16  O   UNL     1       6.467  -2.220  -0.605  0.00  0.00    +0.000 OA
ATOM     17  C   UNL     1       4.841  -0.522  -1.271  0.00  0.00    +0.000 A 
ENDBRANCH   9  10
ENDBRANCH   7   8
BRANCH   1  18
ATOM     18  O   UNL     1      -0.392   0.315   0.786  0.00  0.00    +0.000 OA
BRANCH  18  19
ATOM     19  C   UNL     1      -1.237   0.572  -0.307  0.00  0.00    +0.000 C 
BRANCH  19  26
ATOM     20  C   UNL     1      -4.452   0.484  -0.525  0.00  0.00    +0.000 C 
ATOM     21  O   UNL     1      -4.000  -0.683  -0.733  0.00  0.00    +0.000 OA
ATOM     22  N   UNL     1      -3.615   1.590  -0.195  0.00  0.00    +0.000 N 
ATOM     23  C   UNL     1      -4.011   2.539   0.859  0.00  0.00    +0.000 C 
ATOM     24  C   UNL     1      -2.728   3.373   0.950  0.00  0.00    +0.000 C 
ATOM     25  O   UNL     1      -1.750   2.393   1.026  0.00  0.00    +0.000 OA
ATOM     26  C   UNL     1      -1.224   2.249  -0.424  0.00  0.00    +0.000 C 
ATOM     27  C   UNL     1      -2.753   2.259  -1.125  0.00  0.00    +0.000 C 
BRANCH  20  28
ATOM     28  O   UNL     1      -5.843   0.531  -0.384  0.00  0.00    +0.000 OA
BRANCH  28  30
ATOM     29  C   UNL     1      -6.153  -0.909   1.070  0.00  0.00    +0.000 C 
ATOM     30  C   UNL     1      -6.582  -0.569   0.145  0.00  0.00    +0.000 C 
ATOM     31  C   UNL     1      -7.970  -0.015   0.442  0.00  0.00    +0.000 C 
ATOM     32  C   UNL     1      -6.698  -1.701  -0.845  0.00  0.00    +0.000 C 
ENDBRANCH  28  30
ENDBRANCH  20  28
ENDBRANCH  19  26
ENDBRANCH  18  19
ENDBRANCH   1  18
TORSDOF 7
