REMARK  Name = 
REMARK  12 active torsions:
REMARK  status: ('A' for Active; 'I' for Inactive)
REMARK    1  A    between atoms: C_2  and  O_3
REMARK    2  A    between atoms: O_3  and  C_4
REMARK    3  A    between atoms: C_4  and  C_6
REMARK    4  A    between atoms: C_6  and  C_7
REMARK    5  A    between atoms: C_7  and  C_8
REMARK    6  A    between atoms: C_8  and  O_9
REMARK    7  A    between atoms: C_8  and  C_27
REMARK    8  A    between atoms: O_9  and  C_10
REMARK    9  A    between atoms: C_16  and  C_17
REMARK   10  A    between atoms: C_18  and  C_19
REMARK   11  A    between atoms: C_27  and  O_29
REMARK   12  A    between atoms: O_29  and  C_30
REMARK                            x       y       z     vdW  Elec       q    Type
REMARK                         _______ _______ _______ _____ _____    ______ ____
ROOT
ATOM      1  C   UNL     1      -0.194  -0.518  -0.042  0.00  0.00    +0.000 A 
ATOM      2  C   UNL     1      -0.721   0.131   1.074  0.00  0.00    +0.000 A 
ATOM      3  C   UNL     1      -0.030   0.145   2.283  0.00  0.00    +0.000 A 
ATOM      4  O   UNL     1       0.062   1.298   3.075  0.00  0.00    +0.000 OA
ATOM      5  C   UNL     1       0.880  -0.899   2.407  0.00  0.00    +0.000 A 
ATOM      6  C   UNL     1       1.512  -1.412   1.275  0.00  0.00    +0.000 A 
ATOM      7  C   UNL     1       1.076  -1.084  -0.006  0.00  0.00    +0.000 A 
ENDROOT
BRANCH   7   8
ATOM      8  C   UNL     1       2.073  -0.826  -1.054  0.00  0.00    +0.000 C 
ATOM      9  C   UNL     1       2.405   0.364  -1.489  0.00  0.00    +0.000 C 
BRANCH   9  10
ATOM     10  C   UNL     1       3.749   0.946  -1.351  0.00  0.00    +0.000 A 
ATOM     11  C   UNL     1       4.080   1.775  -0.282  0.00  0.00    +0.000 A 
ATOM     12  C   UNL     1       5.218   1.544   0.485  0.00  0.00    +0.000 A 
ATOM     13  O   UNL     1       5.364   2.089   1.756  0.00  0.00    +0.000 OA
ATOM     14  C   UNL     1       6.293   1.017  -0.211  0.00  0.00    +0.000 A 
ATOM     15  C   UNL     1       6.132   0.477  -1.478  0.00  0.00    +0.000 A 
ATOM     16  O   UNL     1       7.225   0.338  -2.337  0.00  0.00    +0.000 OA
ATOM     17  C   UNL     1       4.831   0.286  -1.923  0.00  0.00    +0.000 A 
ENDBRANCH   9  10
ENDBRANCH   7   8
BRANCH   1  18
ATOM     18  O   UNL     1      -0.732  -0.257  -1.260  0.00  0.00    +0.000 OA
BRANCH  18  19
ATOM     19  C   UNL     1      -1.600  -1.329  -1.942  0.00  0.00    +0.000 C 
BRANCH  19  20
ATOM     20  C   UNL     1      -2.389  -1.711  -0.580  0.00  0.00    +0.000 C 
ATOM     21  O   UNL     1      -1.696  -2.596   0.016  0.00  0.00    +0.000 OA
BRANCH  20  22
ATOM     22  O   UNL     1      -3.705  -2.150  -0.788  0.00  0.00    +0.000 OA
BRANCH  22  23
ATOM     23  C   UNL     1      -4.344  -2.976   0.174  0.00  0.00    +0.000 C 
ATOM     24  C   UNL     1      -3.467  -4.164   0.544  0.00  0.00    +0.000 C 
ENDBRANCH  22  23
ENDBRANCH  20  22
ENDBRANCH  19  20
BRANCH  19  25
ATOM     25  C   UNL     1      -2.751  -0.235  -2.381  0.00  0.00    +0.000 C 
BRANCH  25  26
ATOM     26  C   UNL     1      -2.923   0.741  -1.289  0.00  0.00    +0.000 C 
BRANCH  26  27
ATOM     27  C   UNL     1      -4.295   0.969  -0.814  0.00  0.00    +0.000 C 
ATOM     28  O   UNL     1      -4.450   0.908   0.447  0.00  0.00    +0.000 OA
BRANCH  27  29
ATOM     29  O   UNL     1      -5.163   1.876  -1.439  0.00  0.00    +0.000 OA
BRANCH  29  31
ATOM     30  C   UNL     1      -6.524   2.427  -0.016  0.00  0.00    +0.000 C 
ATOM     31  C   UNL     1      -5.917   2.826  -0.685  0.00  0.00    +0.000 C 
ENDBRANCH  29  31
ENDBRANCH  27  29
ENDBRANCH  26  27
ENDBRANCH  25  26
ENDBRANCH  19  25
ENDBRANCH  18  19
ENDBRANCH   1  18
TORSDOF 12
