REMARK  Name = 
REMARK  12 active torsions:
REMARK  status: ('A' for Active; 'I' for Inactive)
REMARK    1  A    between atoms: C_2  and  O_3
REMARK    2  A    between atoms: O_3  and  C_4
REMARK    3  A    between atoms: C_4  and  C_6
REMARK    4  A    between atoms: C_6  and  C_7
REMARK    5  A    between atoms: C_7  and  C_8
REMARK    6  A    between atoms: C_8  and  O_9
REMARK    7  A    between atoms: C_8  and  C_27
REMARK    8  A    between atoms: O_9  and  C_10
REMARK    9  A    between atoms: C_16  and  C_17
REMARK   10  A    between atoms: C_18  and  C_19
REMARK   11  A    between atoms: C_27  and  O_29
REMARK   12  A    between atoms: O_29  and  C_30
REMARK                            x       y       z     vdW  Elec       q    Type
REMARK                         _______ _______ _______ _____ _____    ______ ____
ROOT
ATOM      1  C   UNL     1       0.076   0.589  -0.704  0.00  0.00    +0.000 A 
ATOM      2  C   UNL     1       0.640   1.851  -0.851  0.00  0.00    +0.000 A 
ATOM      3  C   UNL     1       1.386   2.101  -1.970  0.00  0.00    +0.000 A 
ATOM      4  O   UNL     1       2.048   3.327  -2.048  0.00  0.00    +0.000 OA
ATOM      5  C   UNL     1       1.848   1.005  -2.688  0.00  0.00    +0.000 A 
ATOM      6  C   UNL     1       1.356  -0.275  -2.448  0.00  0.00    +0.000 A 
ATOM      7  C   UNL     1       0.660  -0.538  -1.274  0.00  0.00    +0.000 A 
ENDROOT
BRANCH   7   8
ATOM      8  C   UNL     1       0.994  -1.610  -0.339  0.00  0.00    +0.000 C 
ATOM      9  C   UNL     1       2.043  -2.336  -0.275  0.00  0.00    +0.000 C 
BRANCH   9  10
ATOM     10  C   UNL     1       3.262  -2.151   0.524  0.00  0.00    +0.000 A 
ATOM     11  C   UNL     1       3.258  -1.550   1.771  0.00  0.00    +0.000 A 
ATOM     12  C   UNL     1       4.292  -0.728   2.204  0.00  0.00    +0.000 A 
ATOM     13  O   UNL     1       4.146  -0.040   3.389  0.00  0.00    +0.000 OA
ATOM     14  C   UNL     1       5.298  -0.365   1.317  0.00  0.00    +0.000 A 
ATOM     15  C   UNL     1       5.306  -0.912   0.046  0.00  0.00    +0.000 A 
ATOM     16  O   UNL     1       6.198  -0.406  -0.905  0.00  0.00    +0.000 OA
ATOM     17  C   UNL     1       4.425  -1.935  -0.212  0.00  0.00    +0.000 A 
ENDBRANCH   9  10
ENDBRANCH   7   8
BRANCH   1  18
ATOM     18  O   UNL     1      -1.065   0.357   0.072  0.00  0.00    +0.000 OA
BRANCH  18  19
ATOM     19  C   UNL     1      -2.294   0.587  -0.849  0.00  0.00    +0.000 C 
BRANCH  19  20
ATOM     20  C   UNL     1      -2.178   2.203  -0.724  0.00  0.00    +0.000 C 
ATOM     21  O   UNL     1      -2.737   2.814  -1.684  0.00  0.00    +0.000 OA
BRANCH  20  22
ATOM     22  O   UNL     1      -2.059   2.734   0.522  0.00  0.00    +0.000 OA
BRANCH  22  23
ATOM     23  C   UNL     1      -2.000   4.149   0.645  0.00  0.00    +0.000 C 
ATOM     24  C   UNL     1      -2.978   4.698   1.629  0.00  0.00    +0.000 C 
ENDBRANCH  22  23
ENDBRANCH  20  22
ENDBRANCH  19  20
BRANCH  19  25
ATOM     25  C   UNL     1      -3.362   0.464   0.416  0.00  0.00    +0.000 C 
BRANCH  25  26
ATOM     26  C   UNL     1      -4.543  -0.222  -0.230  0.00  0.00    +0.000 C 
BRANCH  26  27
ATOM     27  C   UNL     1      -4.513  -1.698   0.017  0.00  0.00    +0.000 C 
ATOM     28  O   UNL     1      -4.584  -2.499  -0.960  0.00  0.00    +0.000 OA
BRANCH  27  29
ATOM     29  O   UNL     1      -4.807  -2.189   1.273  0.00  0.00    +0.000 OA
BRANCH  29  31
ATOM     30  C   UNL     1      -4.960  -3.892   2.826  0.00  0.00    +0.000 C 
ATOM     31  C   UNL     1      -5.155  -3.536   1.509  0.00  0.00    +0.000 C 
ENDBRANCH  29  31
ENDBRANCH  27  29
ENDBRANCH  26  27
ENDBRANCH  25  26
ENDBRANCH  19  25
ENDBRANCH  18  19
ENDBRANCH   1  18
TORSDOF 12
