REMARK  Name = 
REMARK  12 active torsions:
REMARK  status: ('A' for Active; 'I' for Inactive)
REMARK    1  A    between atoms: C_2  and  C_3
REMARK    2  A    between atoms: C_3  and  O_5
REMARK    3  A    between atoms: O_5  and  C_6
REMARK    4  A    between atoms: C_6  and  C_7
REMARK    5  A    between atoms: C_7  and  C_8
REMARK    6  A    between atoms: C_7  and  O_15
REMARK    7  A    between atoms: C_8  and  O_9
REMARK    8  A    between atoms: O_9  and  C_10
REMARK    9  A    between atoms: C_10  and  C_12
REMARK   10  A    between atoms: O_15  and  C_16
REMARK   11  A    between atoms: C_22  and  C_23
REMARK   12  A    between atoms: C_24  and  C_25
REMARK                            x       y       z     vdW  Elec       q    Type
REMARK                         _______ _______ _______ _____ _____    ______ ____
ROOT
ATOM      1  C   UNL     1      -0.481  -0.173   1.263  0.00  0.00    +0.000 A 
ATOM      2  C   UNL     1      -1.190  -0.057   2.437  0.00  0.00    +0.000 A 
ATOM      3  C   UNL     1      -0.615   0.038   3.685  0.00  0.00    +0.000 A 
ATOM      4  O   UNL     1      -1.341  -0.253   4.846  0.00  0.00    +0.000 OA
ATOM      5  C   UNL     1       0.750   0.295   3.754  0.00  0.00    +0.000 A 
ATOM      6  C   UNL     1       1.478  -0.162   2.662  0.00  0.00    +0.000 A 
ATOM      7  C   UNL     1       0.858  -0.502   1.462  0.00  0.00    +0.000 A 
ENDROOT
BRANCH   7   8
ATOM      8  C   UNL     1       1.630  -0.962   0.298  0.00  0.00    +0.000 C 
ATOM      9  C   UNL     1       2.878  -1.356   0.397  0.00  0.00    +0.000 C 
BRANCH   9  10
ATOM     10  C   UNL     1       3.975  -0.878  -0.454  0.00  0.00    +0.000 A 
ATOM     11  C   UNL     1       3.883  -0.941  -1.830  0.00  0.00    +0.000 A 
ATOM     12  C   UNL     1       4.912  -0.373  -2.559  0.00  0.00    +0.000 A 
ATOM     13  O   UNL     1       5.170  -0.805  -3.857  0.00  0.00    +0.000 OA
ATOM     14  C   UNL     1       5.867   0.396  -1.946  0.00  0.00    +0.000 A 
ATOM     15  C   UNL     1       5.619   0.849  -0.658  0.00  0.00    +0.000 A 
ATOM     16  O   UNL     1       6.320   1.943  -0.144  0.00  0.00    +0.000 OA
ATOM     17  C   UNL     1       4.781   0.101   0.121  0.00  0.00    +0.000 A 
ENDBRANCH   9  10
ENDBRANCH   7   8
BRANCH   1  18
ATOM     18  O   UNL     1      -0.785   0.334   0.051  0.00  0.00    +0.000 OA
BRANCH  18  19
ATOM     19  C   UNL     1      -2.183   0.027  -0.577  0.00  0.00    +0.000 C 
BRANCH  19  20
ATOM     20  C   UNL     1      -2.342  -1.460   0.188  0.00  0.00    +0.000 C 
BRANCH  20  21
ATOM     21  O   UNL     1      -2.699  -2.234  -0.944  0.00  0.00    +0.000 OA
BRANCH  21  22
ATOM     22  C   UNL     1      -3.679  -3.194  -0.939  0.00  0.00    +0.000 C 
ATOM     23  O   UNL     1      -4.202  -3.525   0.142  0.00  0.00    +0.000 OA
BRANCH  22  25
ATOM     24  C   UNL     1      -3.940  -5.107  -2.219  0.00  0.00    +0.000 C 
ATOM     25  C   UNL     1      -4.031  -3.907  -2.139  0.00  0.00    +0.000 C 
ENDBRANCH  22  25
ENDBRANCH  21  22
ENDBRANCH  20  21
ENDBRANCH  19  20
BRANCH  19  26
ATOM     26  C   UNL     1      -2.979   0.817   0.671  0.00  0.00    +0.000 C 
BRANCH  26  27
ATOM     27  O   UNL     1      -2.459   2.145   0.571  0.00  0.00    +0.000 OA
BRANCH  27  28
ATOM     28  C   UNL     1      -2.576   2.858  -0.628  0.00  0.00    +0.000 C 
ATOM     29  O   UNL     1      -2.744   2.138  -1.659  0.00  0.00    +0.000 OA
BRANCH  28  30
ATOM     30  C   UNL     1      -3.013   4.250  -0.677  0.00  0.00    +0.000 C 
ATOM     31  C   UNL     1      -2.819   5.049   0.350  0.00  0.00    +0.000 C 
ATOM     32  C   UNL     1      -4.043   4.652  -1.667  0.00  0.00    +0.000 C 
ENDBRANCH  28  30
ENDBRANCH  27  28
ENDBRANCH  26  27
ENDBRANCH  19  26
ENDBRANCH  18  19
ENDBRANCH   1  18
TORSDOF 12
