REMARK  Name = 
REMARK  12 active torsions:
REMARK  status: ('A' for Active; 'I' for Inactive)
REMARK    1  A    between atoms: C_2  and  C_3
REMARK    2  A    between atoms: C_3  and  O_5
REMARK    3  A    between atoms: O_5  and  C_6
REMARK    4  A    between atoms: C_6  and  C_7
REMARK    5  A    between atoms: C_7  and  C_8
REMARK    6  A    between atoms: C_7  and  O_15
REMARK    7  A    between atoms: C_8  and  O_9
REMARK    8  A    between atoms: O_9  and  C_10
REMARK    9  A    between atoms: C_10  and  C_12
REMARK   10  A    between atoms: O_15  and  C_16
REMARK   11  A    between atoms: C_22  and  C_23
REMARK   12  A    between atoms: C_24  and  C_25
REMARK                            x       y       z     vdW  Elec       q    Type
REMARK                         _______ _______ _______ _____ _____    ______ ____
ROOT
ATOM      1  C   UNL     1       0.037   0.441  -0.295  0.00  0.00    +0.000 A 
ATOM      2  C   UNL     1      -0.082   1.557  -1.124  0.00  0.00    +0.000 A 
ATOM      3  C   UNL     1      -0.893   2.620  -0.740  0.00  0.00    +0.000 A 
ATOM      4  O   UNL     1      -1.310   3.470  -1.758  0.00  0.00    +0.000 OA
ATOM      5  C   UNL     1      -1.659   2.451   0.409  0.00  0.00    +0.000 A 
ATOM      6  C   UNL     1      -1.562   1.279   1.155  0.00  0.00    +0.000 A 
ATOM      7  C   UNL     1      -0.997   0.135   0.592  0.00  0.00    +0.000 A 
ENDROOT
BRANCH   7   8
ATOM      8  C   UNL     1      -1.516  -1.171   0.579  0.00  0.00    +0.000 C 
ATOM      9  C   UNL     1      -2.447  -1.912   0.874  0.00  0.00    +0.000 C 
BRANCH   9  10
ATOM     10  C   UNL     1      -3.883  -1.948   0.632  0.00  0.00    +0.000 A 
ATOM     11  C   UNL     1      -4.766  -1.149   1.363  0.00  0.00    +0.000 A 
ATOM     12  C   UNL     1      -5.641  -0.275   0.726  0.00  0.00    +0.000 A 
ATOM     13  O   UNL     1      -6.040   0.937   1.268  0.00  0.00    +0.000 OA
ATOM     14  C   UNL     1      -6.099  -0.677  -0.523  0.00  0.00    +0.000 A 
ATOM     15  C   UNL     1      -5.597  -1.844  -1.089  0.00  0.00    +0.000 A 
ATOM     16  O   UNL     1      -6.369  -2.538  -2.027  0.00  0.00    +0.000 OA
ATOM     17  C   UNL     1      -4.398  -2.347  -0.599  0.00  0.00    +0.000 A 
ENDBRANCH   9  10
ENDBRANCH   7   8
BRANCH   1  18
ATOM     18  O   UNL     1       1.038  -0.424  -0.491  0.00  0.00    +0.000 OA
BRANCH  18  19
ATOM     19  C   UNL     1       2.347  -0.390   0.309  0.00  0.00    +0.000 C 
BRANCH  19  20
ATOM     20  C   UNL     1       2.076   1.074   0.999  0.00  0.00    +0.000 C 
BRANCH  20  21
ATOM     21  O   UNL     1       2.576   2.090   0.270  0.00  0.00    +0.000 OA
BRANCH  21  22
ATOM     22  C   UNL     1       3.718   2.824   0.545  0.00  0.00    +0.000 C 
ATOM     23  O   UNL     1       4.639   2.187   1.107  0.00  0.00    +0.000 OA
BRANCH  22  25
ATOM     24  C   UNL     1       3.109   4.818  -0.280  0.00  0.00    +0.000 C 
ATOM     25  C   UNL     1       3.879   4.087  -0.144  0.00  0.00    +0.000 C 
ENDBRANCH  22  25
ENDBRANCH  21  22
ENDBRANCH  20  21
ENDBRANCH  19  20
BRANCH  19  26
ATOM     26  C   UNL     1       3.173   0.197  -0.994  0.00  0.00    +0.000 C 
BRANCH  26  27
ATOM     27  O   UNL     1       4.234  -0.730  -1.181  0.00  0.00    +0.000 OA
BRANCH  27  28
ATOM     28  C   UNL     1       3.998  -2.105  -1.149  0.00  0.00    +0.000 C 
ATOM     29  O   UNL     1       2.852  -2.465  -1.547  0.00  0.00    +0.000 OA
BRANCH  28  30
ATOM     30  C   UNL     1       5.052  -3.071  -0.815  0.00  0.00    +0.000 C 
ATOM     31  C   UNL     1       5.943  -2.645   0.084  0.00  0.00    +0.000 C 
ATOM     32  C   UNL     1       4.589  -4.478  -0.588  0.00  0.00    +0.000 C 
ENDBRANCH  28  30
ENDBRANCH  27  28
ENDBRANCH  26  27
ENDBRANCH  19  26
ENDBRANCH  18  19
ENDBRANCH   1  18
TORSDOF 12
