REMARK  Name = 
REMARK  2 active torsions:
REMARK  status: ('A' for Active; 'I' for Inactive)
REMARK    1  A    between atoms: C_5  and  C_6
REMARK    2  A    between atoms: C_7  and  C_8
REMARK                            x       y       z     vdW  Elec       q    Type
REMARK                         _______ _______ _______ _____ _____    ______ ____
ROOT
ATOM      1  C   UNL     1       0.737  -1.714   0.239  0.00  0.00    +0.000 C 
ATOM      2  C   UNL     1      -0.422  -1.872  -0.402  0.00  0.00    +0.000 C 
ENDROOT
BRANCH   1   7
ATOM      3  O   UNL     1       5.280   0.541  -0.358  0.00  0.00    +0.000 OA
ATOM      4  C   UNL     1       3.909   0.788  -0.238  0.00  0.00    +0.000 A 
ATOM      5  C   UNL     1       3.050   0.651  -1.323  0.00  0.00    +0.000 A 
ATOM      6  C   UNL     1       1.807   0.048  -1.171  0.00  0.00    +0.000 A 
ATOM      7  C   UNL     1       1.363  -0.395   0.070  0.00  0.00    +0.000 A 
ATOM      8  C   UNL     1       2.056   0.129   1.155  0.00  0.00    +0.000 A 
ATOM      9  O   UNL     1       1.498  -0.017   2.409  0.00  0.00    +0.000 OA
ATOM     10  C   UNL     1       3.281   0.770   1.002  0.00  0.00    +0.000 A 
ENDBRANCH   1   7
BRANCH   2  11
ATOM     11  C   UNL     1      -1.440  -0.867  -0.071  0.00  0.00    +0.000 A 
ATOM     12  C   UNL     1      -1.480   0.380  -0.628  0.00  0.00    +0.000 A 
ATOM     13  C   UNL     1      -2.502   1.252  -0.277  0.00  0.00    +0.000 A 
ATOM     14  O   UNL     1      -2.271   2.627  -0.163  0.00  0.00    +0.000 OA
ATOM     15  C   UNL     1      -3.643   0.750   0.289  0.00  0.00    +0.000 A 
ATOM     16  C   UNL     1      -3.772  -0.613   0.500  0.00  0.00    +0.000 A 
ATOM     17  O   UNL     1      -4.832  -1.096   1.237  0.00  0.00    +0.000 OA
ATOM     18  C   UNL     1      -2.616  -1.360   0.482  0.00  0.00    +0.000 A 
ENDBRANCH   2  11
TORSDOF 2
