REMARK  Name = 
REMARK  6 active torsions:
REMARK  status: ('A' for Active; 'I' for Inactive)
REMARK    1  A    between atoms: C_2  and  O_5
REMARK    2  A    between atoms: O_5  and  C_6
REMARK    3  A    between atoms: C_12  and  O_13
REMARK    4  A    between atoms: O_13  and  C_14
REMARK    5  A    between atoms: C_20  and  C_21
REMARK    6  A    between atoms: C_22  and  C_23
REMARK                            x       y       z     vdW  Elec       q    Type
REMARK                         _______ _______ _______ _____ _____    ______ ____
ROOT
ATOM      1  C   UNL     1      -0.224  -2.062  -0.329  0.00  0.00    +0.000 A 
ATOM      2  C   UNL     1      -0.118  -3.299  -0.943  0.00  0.00    +0.000 A 
ATOM      3  C   UNL     1      -1.205  -4.162  -0.856  0.00  0.00    +0.000 A 
ATOM      4  O   UNL     1      -1.469  -5.149  -1.777  0.00  0.00    +0.000 OA
ATOM      5  C   UNL     1      -2.086  -4.003   0.207  0.00  0.00    +0.000 A 
ATOM      6  C   UNL     1      -2.139  -2.773   0.845  0.00  0.00    +0.000 A 
ATOM      7  C   UNL     1      -1.308  -1.745   0.444  0.00  0.00    +0.000 A 
ENDROOT
BRANCH   7   8
ATOM      8  C   UNL     1      -1.710  -0.335   0.487  0.00  0.00    +0.000 C 
ATOM      9  C   UNL     1      -2.635   0.186  -0.280  0.00  0.00    +0.000 C 
BRANCH   9  10
ATOM     10  C   UNL     1      -3.772   0.977   0.207  0.00  0.00    +0.000 A 
ATOM     11  C   UNL     1      -3.958   2.282  -0.236  0.00  0.00    +0.000 A 
ATOM     12  C   UNL     1      -5.156   2.923   0.036  0.00  0.00    +0.000 A 
ATOM     13  O   UNL     1      -5.196   4.314   0.042  0.00  0.00    +0.000 OA
ATOM     14  C   UNL     1      -6.290   2.221   0.404  0.00  0.00    +0.000 A 
ATOM     15  C   UNL     1      -6.176   0.853   0.518  0.00  0.00    +0.000 A 
ATOM     16  O   UNL     1      -7.223   0.122   1.042  0.00  0.00    +0.000 OA
ATOM     17  C   UNL     1      -4.949   0.263   0.408  0.00  0.00    +0.000 A 
ENDBRANCH   9  10
ENDBRANCH   7   8
BRANCH   1  18
ATOM     18  O   UNL     1       0.858  -1.218  -0.445  0.00  0.00    +0.000 OA
BRANCH  18  25
ATOM     19  C   UNL     1       4.465   0.643  -0.377  0.00  0.00    +0.000 C 
ATOM     20  O   UNL     1       4.799   1.468  -1.278  0.00  0.00    +0.000 OA
ATOM     21  N   UNL     1       3.178   0.001  -0.356  0.00  0.00    +0.000 N 
ATOM     22  C   UNL     1       2.227   0.306  -1.355  0.00  0.00    +0.000 C 
ATOM     23  C   UNL     1       1.138   1.181  -0.454  0.00  0.00    +0.000 C 
ATOM     24  F   UNL     1       2.211   1.868   0.383  0.00  0.00    +0.000 F 
ATOM     25  C   UNL     1       0.968  -0.152   0.681  0.00  0.00    +0.000 C 
ATOM     26  C   UNL     1       2.592  -0.343   0.838  0.00  0.00    +0.000 C 
BRANCH  19  27
ATOM     27  O   UNL     1       5.362   0.566   0.684  0.00  0.00    +0.000 OA
BRANCH  27  29
ATOM     28  C   UNL     1       7.115   0.620  -0.136  0.00  0.00    +0.000 C 
ATOM     29  C   UNL     1       6.695   1.046   0.540  0.00  0.00    +0.000 C 
ATOM     30  C   UNL     1       7.417   0.878   1.859  0.00  0.00    +0.000 C 
ATOM     31  C   UNL     1       6.589   2.524   0.187  0.00  0.00    +0.000 C 
ENDBRANCH  27  29
ENDBRANCH  19  27
ENDBRANCH  18  25
ENDBRANCH   1  18
TORSDOF 6
