REMARK  Name = 
REMARK  6 active torsions:
REMARK  status: ('A' for Active; 'I' for Inactive)
REMARK    1  A    between atoms: C_2  and  O_5
REMARK    2  A    between atoms: O_5  and  C_6
REMARK    3  A    between atoms: C_10  and  O_11
REMARK    4  A    between atoms: O_11  and  C_12
REMARK    5  A    between atoms: C_18  and  C_19
REMARK    6  A    between atoms: C_20  and  C_21
REMARK                            x       y       z     vdW  Elec       q    Type
REMARK                         _______ _______ _______ _____ _____    ______ ____
ROOT
ATOM      1  C   UNL     1      -0.116   0.916   0.037  0.00  0.00    +0.000 A 
ATOM      2  C   UNL     1       0.165   2.162   0.529  0.00  0.00    +0.000 A 
ATOM      3  C   UNL     1      -0.089   3.317  -0.205  0.00  0.00    +0.000 A 
ATOM      4  O   UNL     1      -0.348   4.540   0.422  0.00  0.00    +0.000 OA
ATOM      5  C   UNL     1      -0.341   3.117  -1.558  0.00  0.00    +0.000 A 
ATOM      6  C   UNL     1      -0.967   1.935  -1.944  0.00  0.00    +0.000 A 
ATOM      7  C   UNL     1      -0.917   0.831  -1.098  0.00  0.00    +0.000 A 
ENDROOT
BRANCH   7   8
ATOM      8  C   UNL     1      -1.982  -0.186  -1.129  0.00  0.00    +0.000 C 
ATOM      9  C   UNL     1      -3.212   0.301  -1.099  0.00  0.00    +0.000 C 
BRANCH   9  10
ATOM     10  C   UNL     1      -4.362  -0.362  -0.541  0.00  0.00    +0.000 A 
ATOM     11  C   UNL     1      -4.694  -1.664  -0.779  0.00  0.00    +0.000 A 
ATOM     12  C   UNL     1      -5.696  -2.226  -0.027  0.00  0.00    +0.000 A 
ATOM     13  O   UNL     1      -5.833  -3.604   0.023  0.00  0.00    +0.000 OA
ATOM     14  C   UNL     1      -6.502  -1.482   0.824  0.00  0.00    +0.000 A 
ATOM     15  C   UNL     1      -6.224  -0.132   0.995  0.00  0.00    +0.000 A 
ATOM     16  O   UNL     1      -6.740   0.534   2.112  0.00  0.00    +0.000 OA
ATOM     17  C   UNL     1      -5.259   0.413   0.180  0.00  0.00    +0.000 A 
ENDBRANCH   9  10
ENDBRANCH   7   8
BRANCH   1  18
ATOM     18  O   UNL     1       0.185  -0.289   0.574  0.00  0.00    +0.000 OA
BRANCH  18  23
ATOM     19  C   UNL     1       4.247  -0.655  -0.300  0.00  0.00    +0.000 C 
ATOM     20  O   UNL     1       4.616  -1.804   0.068  0.00  0.00    +0.000 OA
ATOM     21  N   UNL     1       2.865  -0.281  -0.244  0.00  0.00    +0.000 N 
ATOM     22  C   UNL     1       2.339   0.569   0.730  0.00  0.00    +0.000 C 
ATOM     23  C   UNL     1       1.319  -0.374   1.616  0.00  0.00    +0.000 C 
ATOM     24  C   UNL     1       1.999  -1.848   0.953  0.00  0.00    +0.000 C 
ATOM     25  F   UNL     1       0.656  -2.549   0.895  0.00  0.00    +0.000 F 
ATOM     26  C   UNL     1       1.841  -1.253  -0.590  0.00  0.00    +0.000 C 
BRANCH  19  27
ATOM     27  O   UNL     1       5.226   0.316  -0.350  0.00  0.00    +0.000 OA
BRANCH  27  29
ATOM     28  C   UNL     1       6.812  -0.180  -1.648  0.00  0.00    +0.000 C 
ATOM     29  C   UNL     1       6.592   0.009  -0.616  0.00  0.00    +0.000 C 
ATOM     30  C   UNL     1       7.480   1.140  -0.110  0.00  0.00    +0.000 C 
ATOM     31  C   UNL     1       6.937  -1.209   0.234  0.00  0.00    +0.000 C 
ENDBRANCH  27  29
ENDBRANCH  19  27
ENDBRANCH  18  23
ENDBRANCH   1  18
TORSDOF 6
