REMARK  Name = 
REMARK  6 active torsions:
REMARK  status: ('A' for Active; 'I' for Inactive)
REMARK    1  A    between atoms: N_2  and  C_4
REMARK    2  A    between atoms: C_7  and  N_8
REMARK    3  A    between atoms: C_11  and  O_12
REMARK    4  A    between atoms: O_12  and  C_13
REMARK    5  A    between atoms: C_19  and  C_20
REMARK    6  A    between atoms: C_21  and  C_22
REMARK                            x       y       z     vdW  Elec       q    Type
REMARK                         _______ _______ _______ _____ _____    ______ ____
ROOT
ATOM      1  C   UNL     1       0.843  -0.720   0.199  0.00  0.00    +0.000 A 
ATOM      2  C   UNL     1       0.633  -1.997   0.711  0.00  0.00    +0.000 A 
ATOM      3  C   UNL     1       1.419  -3.076   0.322  0.00  0.00    +0.000 A 
ATOM      4  O   UNL     1       1.986  -3.952   1.256  0.00  0.00    +0.000 OA
ATOM      5  C   UNL     1       2.026  -2.937  -0.922  0.00  0.00    +0.000 A 
ATOM      6  C   UNL     1       2.104  -1.689  -1.531  0.00  0.00    +0.000 A 
ATOM      7  C   UNL     1       1.703  -0.535  -0.878  0.00  0.00    +0.000 A 
ENDROOT
BRANCH   7   8
ATOM      8  C   UNL     1       2.553   0.663  -0.799  0.00  0.00    +0.000 C 
ATOM      9  C   UNL     1       3.736   0.750  -1.352  0.00  0.00    +0.000 C 
BRANCH   9  10
ATOM     10  C   UNL     1       4.967   1.165  -0.696  0.00  0.00    +0.000 A 
ATOM     11  C   UNL     1       6.135   1.023  -1.439  0.00  0.00    +0.000 A 
ATOM     12  C   UNL     1       7.375   0.857  -0.860  0.00  0.00    +0.000 A 
ATOM     13  O   UNL     1       8.497   0.440  -1.568  0.00  0.00    +0.000 OA
ATOM     14  C   UNL     1       7.455   0.790   0.522  0.00  0.00    +0.000 A 
ATOM     15  C   UNL     1       6.319   0.848   1.281  0.00  0.00    +0.000 A 
ATOM     16  O   UNL     1       6.424   0.573   2.640  0.00  0.00    +0.000 OA
ATOM     17  C   UNL     1       5.146   1.197   0.664  0.00  0.00    +0.000 A 
ENDBRANCH   9  10
ENDBRANCH   7   8
BRANCH   1  18
ATOM     18  O   UNL     1       0.055   0.290   0.589  0.00  0.00    +0.000 OA
BRANCH  18  22
ATOM     19  N   UNL     1      -3.239  -0.697   0.509  0.00  0.00    +0.000 N 
ATOM     20  C   UNL     1      -2.680  -1.516  -0.534  0.00  0.00    +0.000 C 
ATOM     21  C   UNL     1      -1.336  -0.988  -0.879  0.00  0.00    +0.000 C 
ATOM     22  C   UNL     1      -1.364   0.469  -0.045  0.00  0.00    +0.000 C 
ATOM     23  C   UNL     1      -2.093  -0.260   1.280  0.00  0.00    +0.000 C 
BRANCH  19  27
ATOM     24  C   UNL     1      -6.997   1.012   0.105  0.00  0.00    +0.000 A 
ATOM     25  C   UNL     1      -6.108   1.033  -0.965  0.00  0.00    +0.000 A 
ATOM     26  C   UNL     1      -4.925   0.318  -0.869  0.00  0.00    +0.000 A 
ATOM     27  C   UNL     1      -4.543  -0.130   0.392  0.00  0.00    +0.000 A 
ATOM     28  N   UNL     1      -5.565  -0.621   1.138  0.00  0.00    +0.000 NA
ATOM     29  C   UNL     1      -6.764  -0.001   1.028  0.00  0.00    +0.000 A 
BRANCH  24  31
ATOM     30  O   UNL     1      -8.902   2.365   0.103  0.00  0.00    +0.000 OA
ATOM     31  N   UNL     1      -7.780   2.166   0.444  0.00  0.00    +0.000 N 
ATOM     32  O   UNL     1      -7.079   3.160   1.104  0.00  0.00    +0.000 OA
ENDBRANCH  24  31
ENDBRANCH  19  27
ENDBRANCH  18  22
ENDBRANCH   1  18
TORSDOF 6
