REMARK  Name = 
REMARK  6 active torsions:
REMARK  status: ('A' for Active; 'I' for Inactive)
REMARK    1  A    between atoms: C_5  and  C_6
REMARK    2  A    between atoms: C_7  and  C_8
REMARK    3  A    between atoms: C_16  and  O_17
REMARK    4  A    between atoms: O_17  and  C_18
REMARK    5  A    between atoms: N_23  and  C_24
REMARK    6  A    between atoms: C_24  and  C_25
REMARK                            x       y       z     vdW  Elec       q    Type
REMARK                         _______ _______ _______ _____ _____    ______ ____
ROOT
ATOM      1  O   UNL     1       0.850   5.365  -0.712  0.00  0.00    +0.000 OA
ATOM      2  C   UNL     1       1.398   4.114  -0.483  0.00  0.00    +0.000 A 
ATOM      3  C   UNL     1       2.429   4.049   0.440  0.00  0.00    +0.000 A 
ATOM      4  C   UNL     1       2.930   2.829   0.806  0.00  0.00    +0.000 A 
ATOM      5  C   UNL     1       2.367   1.696   0.232  0.00  0.00    +0.000 A 
ATOM      6  C   UNL     1       1.261   1.741  -0.582  0.00  0.00    +0.000 A 
ATOM      7  C   UNL     1       0.996   2.975  -1.165  0.00  0.00    +0.000 A 
ENDROOT
BRANCH   5   8
ATOM      8  C   UNL     1       2.760   0.411   0.766  0.00  0.00    +0.000 C 
ATOM      9  C   UNL     1       3.989   0.083   1.116  0.00  0.00    +0.000 C 
BRANCH   9  10
ATOM     10  C   UNL     1       4.450  -1.269   0.770  0.00  0.00    +0.000 A 
ATOM     11  C   UNL     1       3.635  -2.376   0.841  0.00  0.00    +0.000 A 
ATOM     12  C   UNL     1       3.786  -3.479   0.009  0.00  0.00    +0.000 A 
ATOM     13  O   UNL     1       2.647  -4.254  -0.237  0.00  0.00    +0.000 OA
ATOM     14  C   UNL     1       4.655  -3.361  -1.068  0.00  0.00    +0.000 A 
ATOM     15  C   UNL     1       5.594  -2.348  -1.084  0.00  0.00    +0.000 A 
ATOM     16  O   UNL     1       6.727  -2.451  -1.861  0.00  0.00    +0.000 OA
ATOM     17  C   UNL     1       5.498  -1.335  -0.138  0.00  0.00    +0.000 A 
ENDBRANCH   9  10
ENDBRANCH   5   8
BRANCH   6  18
ATOM     18  O   UNL     1       0.395   0.683  -0.792  0.00  0.00    +0.000 OA
BRANCH  18  19
ATOM     19  C   UNL     1      -0.644   0.502   0.367  0.00  0.00    +0.000 C 
ATOM     20  C   UNL     1      -1.208   2.068   0.163  0.00  0.00    +0.000 C 
ATOM     21  O   UNL     1      -2.559   1.958   0.424  0.00  0.00    +0.000 OA
ATOM     22  C   UNL     1      -2.863   1.274   1.574  0.00  0.00    +0.000 C 
ATOM     23  C   UNL     1      -2.837  -0.208   1.478  0.00  0.00    +0.000 C 
ATOM     24  N   UNL     1      -2.634  -0.775   0.211  0.00  0.00    +0.000 NA
ATOM     25  C   UNL     1      -1.791  -0.095  -0.701  0.00  0.00    +0.000 C 
BRANCH  24  26
ATOM     26  C   UNL     1      -3.595  -1.665  -0.300  0.00  0.00    +0.000 C 
BRANCH  26  27
ATOM     27  C   UNL     1      -5.002  -1.330  -0.017  0.00  0.00    +0.000 A 
ATOM     28  C   UNL     1      -5.966  -2.331  -0.014  0.00  0.00    +0.000 A 
ATOM     29  C   UNL     1      -7.315  -2.018   0.108  0.00  0.00    +0.000 A 
ATOM     30  C   UNL     1      -7.717  -0.692   0.140  0.00  0.00    +0.000 A 
ATOM     31  C   UNL     1      -6.740   0.294   0.202  0.00  0.00    +0.000 A 
ATOM     32  C   UNL     1      -5.494  -0.054  -0.268  0.00  0.00    +0.000 A 
ENDBRANCH  26  27
ENDBRANCH  24  26
ENDBRANCH  18  19
ENDBRANCH   6  18
TORSDOF 6
