REMARK  Name = 
REMARK  5 active torsions:
REMARK  status: ('A' for Active; 'I' for Inactive)
REMARK    1  A    between atoms: C_5  and  C_6
REMARK    2  A    between atoms: C_7  and  C_8
REMARK    3  A    between atoms: C_16  and  O_17
REMARK    4  A    between atoms: O_17  and  C_18
REMARK    5  A    between atoms: C_18  and  C_19
REMARK                            x       y       z     vdW  Elec       q    Type
REMARK                         _______ _______ _______ _____ _____    ______ ____
ROOT
ATOM      1  O   UNL     1       1.762  -4.833   1.117  0.00  0.00    +0.000 OA
ATOM      2  C   UNL     1       1.573  -3.777   0.331  0.00  0.00    +0.000 A 
ATOM      3  C   UNL     1       2.469  -3.515  -0.701  0.00  0.00    +0.000 A 
ATOM      4  C   UNL     1       2.334  -2.335  -1.425  0.00  0.00    +0.000 A 
ATOM      5  C   UNL     1       1.472  -1.347  -0.959  0.00  0.00    +0.000 A 
ATOM      6  C   UNL     1       0.391  -1.704  -0.151  0.00  0.00    +0.000 A 
ATOM      7  C   UNL     1       0.436  -2.977   0.411  0.00  0.00    +0.000 A 
ENDROOT
BRANCH   5   8
ATOM      8  C   UNL     1       1.752   0.068  -0.968  0.00  0.00    +0.000 C 
ATOM      9  C   UNL     1       2.793   0.724  -1.310  0.00  0.00    +0.000 C 
BRANCH   9  10
ATOM     10  C   UNL     1       3.841   1.316  -0.501  0.00  0.00    +0.000 A 
ATOM     11  C   UNL     1       3.998   2.685  -0.319  0.00  0.00    +0.000 A 
ATOM     12  C   UNL     1       5.247   3.237  -0.053  0.00  0.00    +0.000 A 
ATOM     13  O   UNL     1       5.456   4.617  -0.143  0.00  0.00    +0.000 OA
ATOM     14  C   UNL     1       6.314   2.402   0.256  0.00  0.00    +0.000 A 
ATOM     15  C   UNL     1       6.173   1.039   0.089  0.00  0.00    +0.000 A 
ATOM     16  O   UNL     1       7.220   0.145   0.308  0.00  0.00    +0.000 OA
ATOM     17  C   UNL     1       5.041   0.609  -0.545  0.00  0.00    +0.000 A 
ENDBRANCH   9  10
ENDBRANCH   5   8
BRANCH   6  18
ATOM     18  O   UNL     1      -0.814  -1.169  -0.550  0.00  0.00    +0.000 OA
BRANCH  18  19
ATOM     19  C   UNL     1      -1.443  -0.024  -0.080  0.00  0.00    +0.000 C 
BRANCH  19  20
ATOM     20  C   UNL     1      -2.627  -0.531   0.951  0.00  0.00    +0.000 C 
ATOM     21  C   UNL     1      -3.189  -1.648  -0.125  0.00  0.00    +0.000 C 
ATOM     22  O   UNL     1      -4.388  -2.051   0.455  0.00  0.00    +0.000 OA
ATOM     23  C   UNL     1      -5.487  -1.546  -0.224  0.00  0.00    +0.000 C 
ATOM     24  C   UNL     1      -6.444  -0.824   0.708  0.00  0.00    +0.000 C 
ATOM     25  O   UNL     1      -7.080   0.199   0.011  0.00  0.00    +0.000 OA
ATOM     26  C   UNL     1      -6.574   1.453   0.313  0.00  0.00    +0.000 C 
ATOM     27  C   UNL     1      -5.485   1.866  -0.669  0.00  0.00    +0.000 C 
ATOM     28  O   UNL     1      -4.803   2.957  -0.112  0.00  0.00    +0.000 OA
ATOM     29  C   UNL     1      -3.440   2.737  -0.343  0.00  0.00    +0.000 C 
ATOM     30  C   UNL     1      -2.902   1.704   0.619  0.00  0.00    +0.000 C 
ATOM     31  O   UNL     1      -3.592   0.523   0.435  0.00  0.00    +0.000 OA
ENDBRANCH  19  20
ENDBRANCH  18  19
ENDBRANCH   6  18
TORSDOF 5
