REMARK  Name = 
REMARK  5 active torsions:
REMARK  status: ('A' for Active; 'I' for Inactive)
REMARK    1  A    between atoms: C_5  and  C_6
REMARK    2  A    between atoms: C_7  and  C_8
REMARK    3  A    between atoms: C_16  and  O_17
REMARK    4  A    between atoms: O_17  and  C_18
REMARK    5  A    between atoms: C_18  and  C_19
REMARK                            x       y       z     vdW  Elec       q    Type
REMARK                         _______ _______ _______ _____ _____    ______ ____
ROOT
ATOM      1  O   UNL     1      -1.401   5.399   0.716  0.00  0.00    +0.000 OA
ATOM      2  C   UNL     1      -1.302   4.320  -0.057  0.00  0.00    +0.000 A 
ATOM      3  C   UNL     1      -2.290   4.045  -0.988  0.00  0.00    +0.000 A 
ATOM      4  C   UNL     1      -2.545   2.754  -1.420  0.00  0.00    +0.000 A 
ATOM      5  C   UNL     1      -1.616   1.783  -1.117  0.00  0.00    +0.000 A 
ATOM      6  C   UNL     1      -0.415   2.130  -0.519  0.00  0.00    +0.000 A 
ATOM      7  C   UNL     1      -0.296   3.378   0.060  0.00  0.00    +0.000 A 
ENDROOT
BRANCH   5   8
ATOM      8  C   UNL     1      -2.048   0.384  -1.052  0.00  0.00    +0.000 C 
ATOM      9  C   UNL     1      -2.865   0.073  -0.046  0.00  0.00    +0.000 C 
BRANCH   9  10
ATOM     10  C   UNL     1      -3.859  -0.991  -0.158  0.00  0.00    +0.000 A 
ATOM     11  C   UNL     1      -3.432  -2.295  -0.087  0.00  0.00    +0.000 A 
ATOM     12  C   UNL     1      -4.295  -3.357   0.114  0.00  0.00    +0.000 A 
ATOM     13  O   UNL     1      -3.816  -4.657   0.142  0.00  0.00    +0.000 OA
ATOM     14  C   UNL     1      -5.636  -3.082   0.342  0.00  0.00    +0.000 A 
ATOM     15  C   UNL     1      -6.104  -1.783   0.267  0.00  0.00    +0.000 A 
ATOM     16  O   UNL     1      -7.465  -1.574   0.028  0.00  0.00    +0.000 OA
ATOM     17  C   UNL     1      -5.181  -0.761   0.202  0.00  0.00    +0.000 A 
ENDBRANCH   9  10
ENDBRANCH   5   8
BRANCH   6  18
ATOM     18  O   UNL     1       0.656   1.274  -0.729  0.00  0.00    +0.000 OA
BRANCH  18  19
ATOM     19  C   UNL     1       1.969   1.762  -0.482  0.00  0.00    +0.000 C 
BRANCH  19  20
ATOM     20  C   UNL     1       2.384   0.718   0.759  0.00  0.00    +0.000 C 
ATOM     21  C   UNL     1       2.496  -0.589  -0.279  0.00  0.00    +0.000 C 
ATOM     22  O   UNL     1       3.214  -0.124  -1.356  0.00  0.00    +0.000 OA
ATOM     23  C   UNL     1       3.781  -1.188  -2.002  0.00  0.00    +0.000 C 
ATOM     24  C   UNL     1       5.281  -1.156  -1.994  0.00  0.00    +0.000 C 
ATOM     25  O   UNL     1       5.837  -1.393  -0.750  0.00  0.00    +0.000 OA
ATOM     26  C   UNL     1       5.295  -2.539  -0.180  0.00  0.00    +0.000 C 
ATOM     27  C   UNL     1       5.520  -2.518   1.327  0.00  0.00    +0.000 C 
ATOM     28  O   UNL     1       4.624  -1.560   1.829  0.00  0.00    +0.000 OA
ATOM     29  C   UNL     1       5.282  -0.335   2.014  0.00  0.00    +0.000 C 
ATOM     30  C   UNL     1       4.346   0.833   1.895  0.00  0.00    +0.000 C 
ATOM     31  O   UNL     1       3.881   1.051   0.610  0.00  0.00    +0.000 OA
ENDBRANCH  19  20
ENDBRANCH  18  19
ENDBRANCH   6  18
TORSDOF 5
