REMARK  Name = 
REMARK  5 active torsions:
REMARK  status: ('A' for Active; 'I' for Inactive)
REMARK    1  A    between atoms: C_5  and  C_6
REMARK    2  A    between atoms: C_7  and  C_8
REMARK    3  A    between atoms: C_16  and  O_17
REMARK    4  A    between atoms: O_17  and  C_18
REMARK    5  A    between atoms: N_21  and  C_22
REMARK                            x       y       z     vdW  Elec       q    Type
REMARK                         _______ _______ _______ _____ _____    ______ ____
ROOT
ATOM      1  O   UNL     1       0.617  -5.176   1.438  0.00  0.00    +0.000 OA
ATOM      2  C   UNL     1       0.124  -4.221   0.897  0.00  0.00    +0.000 A 
ATOM      3  C   UNL     1      -1.118  -4.360   0.292  0.00  0.00    +0.000 A 
ATOM      4  C   UNL     1      -1.819  -3.296  -0.229  0.00  0.00    +0.000 A 
ATOM      5  C   UNL     1      -1.139  -2.100  -0.422  0.00  0.00    +0.000 A 
ATOM      6  C   UNL     1       0.115  -1.912   0.147  0.00  0.00    +0.000 A 
ATOM      7  C   UNL     1       0.699  -2.965   0.829  0.00  0.00    +0.000 A 
ENDROOT
BRANCH   5   8
ATOM      8  C   UNL     1      -1.890  -0.865  -0.683  0.00  0.00    +0.000 C 
ATOM      9  C   UNL     1      -3.211  -0.866  -0.540  0.00  0.00    +0.000 C 
BRANCH   9  10
ATOM     10  C   UNL     1      -3.902   0.314  -0.057  0.00  0.00    +0.000 A 
ATOM     11  C   UNL     1      -3.228   1.481   0.170  0.00  0.00    +0.000 A 
ATOM     12  C   UNL     1      -3.936   2.611   0.551  0.00  0.00    +0.000 A 
ATOM     13  O   UNL     1      -3.208   3.690   1.017  0.00  0.00    +0.000 OA
ATOM     14  C   UNL     1      -5.304   2.664   0.451  0.00  0.00    +0.000 A 
ATOM     15  C   UNL     1      -5.998   1.474   0.293  0.00  0.00    +0.000 A 
ATOM     16  O   UNL     1      -7.378   1.481   0.444  0.00  0.00    +0.000 OA
ATOM     17  C   UNL     1      -5.274   0.307   0.078  0.00  0.00    +0.000 A 
ENDBRANCH   9  10
ENDBRANCH   5   8
BRANCH   6  18
ATOM     18  O   UNL     1       0.946  -0.875  -0.291  0.00  0.00    +0.000 OA
BRANCH  18  19
ATOM     19  C   UNL     1       1.296  -1.186  -1.781  0.00  0.00    +0.000 C 
ATOM     20  C   UNL     1       2.679  -2.015  -1.358  0.00  0.00    +0.000 C 
ATOM     21  C   UNL     1       3.264  -1.079  -0.365  0.00  0.00    +0.000 C 
ATOM     22  N   UNL     1       2.881   0.252  -0.736  0.00  0.00    +0.000 N 
ATOM     23  C   UNL     1       2.148   0.233  -1.963  0.00  0.00    +0.000 C 
BRANCH  22  24
ATOM     24  C   UNL     1       3.491   1.418  -0.235  0.00  0.00    +0.000 A 
ATOM     25  C   UNL     1       3.969   2.395  -1.100  0.00  0.00    +0.000 A 
ATOM     26  C   UNL     1       4.974   3.253  -0.751  0.00  0.00    +0.000 A 
ATOM     27  N   UNL     1       5.628   3.064   0.398  0.00  0.00    +0.000 NA
ATOM     28  C   UNL     1       5.011   2.311   1.339  0.00  0.00    +0.000 A 
ATOM     29 CL   UNL     1       5.617   2.443   2.980  0.00  0.00    +0.000 Cl
ATOM     30  N   UNL     1       3.948   1.526   1.035  0.00  0.00    +0.000 NA
ENDBRANCH  22  24
ENDBRANCH  18  19
ENDBRANCH   6  18
TORSDOF 5
