REMARK  Name = 
REMARK  6 active torsions:
REMARK  status: ('A' for Active; 'I' for Inactive)
REMARK    1  A    between atoms: C_2  and  O_4
REMARK    2  A    between atoms: O_4  and  C_5
REMARK    3  A    between atoms: C_9  and  O_10
REMARK    4  A    between atoms: O_10  and  C_11
REMARK    5  A    between atoms: C_17  and  C_18
REMARK    6  A    between atoms: C_19  and  C_20
REMARK                            x       y       z     vdW  Elec       q    Type
REMARK                         _______ _______ _______ _____ _____    ______ ____
ROOT
ATOM      1  C   UNL     1       0.685   0.392  -0.405  0.00  0.00    +0.000 A 
ATOM      2  C   UNL     1       0.567  -0.785  -1.140  0.00  0.00    +0.000 A 
ATOM      3  C   UNL     1       1.258  -1.942  -0.791  0.00  0.00    +0.000 A 
ATOM      4  O   UNL     1       1.811  -2.808  -1.702  0.00  0.00    +0.000 OA
ATOM      5  C   UNL     1       1.474  -2.090   0.575  0.00  0.00    +0.000 A 
ATOM      6  C   UNL     1       1.544  -0.982   1.411  0.00  0.00    +0.000 A 
ATOM      7  C   UNL     1       1.261   0.275   0.861  0.00  0.00    +0.000 A 
ENDROOT
BRANCH   7   8
ATOM      8  C   UNL     1       2.032   1.441   1.253  0.00  0.00    +0.000 C 
ATOM      9  C   UNL     1       3.091   1.996   0.887  0.00  0.00    +0.000 C 
BRANCH   9  10
ATOM     10  C   UNL     1       4.475   1.545   0.670  0.00  0.00    +0.000 A 
ATOM     11  C   UNL     1       4.922   1.165  -0.598  0.00  0.00    +0.000 A 
ATOM     12  C   UNL     1       5.387  -0.118  -0.858  0.00  0.00    +0.000 A 
ATOM     13  O   UNL     1       5.244  -0.755  -2.082  0.00  0.00    +0.000 OA
ATOM     14  C   UNL     1       5.795  -0.913   0.206  0.00  0.00    +0.000 A 
ATOM     15  C   UNL     1       5.786  -0.329   1.468  0.00  0.00    +0.000 A 
ATOM     16  O   UNL     1       6.359  -1.077   2.480  0.00  0.00    +0.000 OA
ATOM     17  C   UNL     1       5.216   0.924   1.675  0.00  0.00    +0.000 A 
ENDBRANCH   9  10
ENDBRANCH   7   8
BRANCH   1  18
ATOM     18  O   UNL     1      -0.284   1.411  -0.498  0.00  0.00    +0.000 OA
BRANCH  18  23
ATOM     19  C   UNL     1      -4.593  -0.318  -1.446  0.00  0.00    +0.000 C 
ATOM     20  C   UNL     1      -4.076   1.206  -1.363  0.00  0.00    +0.000 C 
ATOM     21  C   UNL     1      -3.962   1.382   0.253  0.00  0.00    +0.000 C 
ATOM     22  C   UNL     1      -2.462   2.077   0.114  0.00  0.00    +0.000 C 
ATOM     23  C   UNL     1      -1.502   0.752   0.169  0.00  0.00    +0.000 C 
ATOM     24  C   UNL     1      -2.123   0.197  -1.255  0.00  0.00    +0.000 C 
ATOM     25  C   UNL     1      -3.204  -0.849  -0.591  0.00  0.00    +0.000 C 
ATOM     26  N   UNL     1      -3.460  -0.010   0.645  0.00  0.00    +0.000 NA
ATOM     27  C   UNL     1      -3.993  -0.603   1.717  0.00  0.00    +0.000 C 
BRANCH  19  28
ATOM     28  O   UNL     1      -5.503  -0.235  -0.217  0.00  0.00    +0.000 OA
BRANCH  28  30
ATOM     29  C   UNL     1      -7.607  -0.577   0.402  0.00  0.00    +0.000 C 
ATOM     30  C   UNL     1      -6.859  -0.432  -0.426  0.00  0.00    +0.000 C 
ATOM     31  O   UNL     1      -7.279   0.251  -1.413  0.00  0.00    +0.000 OA
ENDBRANCH  28  30
ENDBRANCH  19  28
ENDBRANCH  18  23
ENDBRANCH   1  18
TORSDOF 6
