REMARK  Name = 
REMARK  6 active torsions:
REMARK  status: ('A' for Active; 'I' for Inactive)
REMARK    1  A    between atoms: C_2  and  O_4
REMARK    2  A    between atoms: O_4  and  C_5
REMARK    3  A    between atoms: C_9  and  O_10
REMARK    4  A    between atoms: O_10  and  C_11
REMARK    5  A    between atoms: C_17  and  C_18
REMARK    6  A    between atoms: C_19  and  C_20
REMARK                            x       y       z     vdW  Elec       q    Type
REMARK                         _______ _______ _______ _____ _____    ______ ____
ROOT
ATOM      1  C   UNL     1       0.087  -1.454   0.210  0.00  0.00    +0.000 A 
ATOM      2  C   UNL     1       1.066  -2.423   0.352  0.00  0.00    +0.000 A 
ATOM      3  C   UNL     1       0.828  -3.779   0.215  0.00  0.00    +0.000 A 
ATOM      4  O   UNL     1       1.810  -4.497  -0.478  0.00  0.00    +0.000 OA
ATOM      5  C   UNL     1      -0.509  -4.130   0.073  0.00  0.00    +0.000 A 
ATOM      6  C   UNL     1      -1.491  -3.248   0.506  0.00  0.00    +0.000 A 
ATOM      7  C   UNL     1      -1.178  -1.895   0.568  0.00  0.00    +0.000 A 
ENDROOT
BRANCH   7   8
ATOM      8  C   UNL     1      -2.199  -0.870   0.793  0.00  0.00    +0.000 C 
ATOM      9  C   UNL     1      -2.698  -0.171  -0.213  0.00  0.00    +0.000 C 
BRANCH   9  10
ATOM     10  C   UNL     1      -4.093   0.259  -0.099  0.00  0.00    +0.000 A 
ATOM     11  C   UNL     1      -5.098  -0.646   0.213  0.00  0.00    +0.000 A 
ATOM     12  C   UNL     1      -6.327  -0.158   0.557  0.00  0.00    +0.000 A 
ATOM     13  O   UNL     1      -7.324  -1.004   0.991  0.00  0.00    +0.000 OA
ATOM     14  C   UNL     1      -6.583   1.194   0.483  0.00  0.00    +0.000 A 
ATOM     15  C   UNL     1      -5.673   2.007  -0.172  0.00  0.00    +0.000 A 
ATOM     16  O   UNL     1      -5.910   3.378  -0.297  0.00  0.00    +0.000 OA
ATOM     17  C   UNL     1      -4.398   1.568  -0.431  0.00  0.00    +0.000 A 
ENDBRANCH   9  10
ENDBRANCH   7   8
BRANCH   1  18
ATOM     18  O   UNL     1       0.356  -0.099  -0.019  0.00  0.00    +0.000 OA
BRANCH  18  23
ATOM     19  C   UNL     1       3.617   1.263  -1.079  0.00  0.00    +0.000 C 
ATOM     20  C   UNL     1       3.855   2.849  -0.875  0.00  0.00    +0.000 C 
ATOM     21  C   UNL     1       3.345   1.470  -0.271  0.00  0.00    +0.000 C 
ATOM     22  C   UNL     1       1.729   1.645  -0.757  0.00  0.00    +0.000 C 
ATOM     23  C   UNL     1       1.637  -0.023  -0.860  0.00  0.00    +0.000 C 
ATOM     24  C   UNL     1       2.572  -0.270   0.504  0.00  0.00    +0.000 C 
ATOM     25  C   UNL     1       2.438   1.325   0.300  0.00  0.00    +0.000 C 
ATOM     26  N   UNL     1       3.420   1.936   1.201  0.00  0.00    +0.000 NA
ATOM     27  C   UNL     1       3.082   3.299   1.229  0.00  0.00    +0.000 C 
BRANCH  19  28
ATOM     28  O   UNL     1       4.764   0.696  -0.239  0.00  0.00    +0.000 OA
BRANCH  28  30
ATOM     29  C   UNL     1       6.869   0.572  -0.348  0.00  0.00    +0.000 C 
ATOM     30  C   UNL     1       6.016   0.816  -0.673  0.00  0.00    +0.000 C 
ATOM     31  O   UNL     1       5.994   0.389  -1.889  0.00  0.00    +0.000 OA
ENDBRANCH  28  30
ENDBRANCH  19  28
ENDBRANCH  18  23
ENDBRANCH   1  18
TORSDOF 6
