REMARK  Name = 
REMARK  4 active torsions:
REMARK  status: ('A' for Active; 'I' for Inactive)
REMARK    1  A    between atoms: C_8  and  O_9
REMARK    2  A    between atoms: O_9  and  C_10
REMARK    3  A    between atoms: C_16  and  C_17
REMARK    4  A    between atoms: C_18  and  C_19
REMARK                            x       y       z     vdW  Elec       q    Type
REMARK                         _______ _______ _______ _____ _____    ______ ____
ROOT
ATOM      1  C   UNL     1      -0.566   1.823   0.023  0.00  0.00    +0.000 A 
ATOM      2  C   UNL     1      -0.571   2.912  -0.842  0.00  0.00    +0.000 A 
ATOM      3  C   UNL     1      -1.708   3.691  -1.027  0.00  0.00    +0.000 A 
ATOM      4  O   UNL     1      -2.134   4.126  -2.268  0.00  0.00    +0.000 OA
ATOM      5  C   UNL     1      -2.597   3.691   0.042  0.00  0.00    +0.000 A 
ATOM      6  C   UNL     1      -2.520   2.743   1.057  0.00  0.00    +0.000 A 
ATOM      7  C   UNL     1      -1.629   1.685   0.912  0.00  0.00    +0.000 A 
ENDROOT
BRANCH   7   8
ATOM      8  C   UNL     1      -2.019   0.292   1.181  0.00  0.00    +0.000 C 
ATOM      9  C   UNL     1      -2.533  -0.512   0.285  0.00  0.00    +0.000 C 
BRANCH   9  10
ATOM     10  C   UNL     1      -3.873  -1.084   0.301  0.00  0.00    +0.000 A 
ATOM     11  C   UNL     1      -4.133  -2.404   0.651  0.00  0.00    +0.000 A 
ATOM     12  C   UNL     1      -5.360  -3.005   0.394  0.00  0.00    +0.000 A 
ATOM     13  O   UNL     1      -5.507  -4.387   0.269  0.00  0.00    +0.000 OA
ATOM     14  C   UNL     1      -6.432  -2.132   0.256  0.00  0.00    +0.000 A 
ATOM     15  C   UNL     1      -6.204  -0.882  -0.308  0.00  0.00    +0.000 A 
ATOM     16  O   UNL     1      -7.241   0.040  -0.480  0.00  0.00    +0.000 OA
ATOM     17  C   UNL     1      -4.878  -0.496  -0.463  0.00  0.00    +0.000 A 
ENDBRANCH   9  10
ENDBRANCH   7   8
BRANCH   1  18
ATOM     18  O   UNL     1       0.620   1.224   0.464  0.00  0.00    +0.000 OA
BRANCH  18  26
ATOM     19  C   UNL     1       8.250  -0.042   0.642  0.00  0.00    +0.000 C 
ATOM     20  C   UNL     1       6.938  -0.428   0.314  0.00  0.00    +0.000 A 
ATOM     21  C   UNL     1       5.883   0.425   0.066  0.00  0.00    +0.000 A 
ATOM     22  C   UNL     1       4.626  -0.026  -0.303  0.00  0.00    +0.000 A 
ATOM     23  N   UNL     1       3.460   0.771  -0.051  0.00  0.00    +0.000 N 
ATOM     24  C   UNL     1       2.757   0.611   1.226  0.00  0.00    +0.000 C 
ATOM     25  C   UNL     1       2.010  -0.610   0.713  0.00  0.00    +0.000 C 
ATOM     26  C   UNL     1       1.169   0.142  -0.510  0.00  0.00    +0.000 C 
ATOM     27  C   UNL     1       2.443   1.105  -0.960  0.00  0.00    +0.000 C 
ATOM     28  N   UNL     1       4.480  -1.371  -0.376  0.00  0.00    +0.000 NA
ATOM     29  C   UNL     1       5.492  -2.231  -0.142  0.00  0.00    +0.000 A 
ATOM     30 CL   UNL     1       5.121  -3.920   0.198  0.00  0.00    +0.000 Cl
ATOM     31  N   UNL     1       6.656  -1.751   0.296  0.00  0.00    +0.000 NA
ENDBRANCH  18  26
ENDBRANCH   1  18
TORSDOF 4
