REMARK  Name = 
REMARK  5 active torsions:
REMARK  status: ('A' for Active; 'I' for Inactive)
REMARK    1  A    between atoms: O_2  and  C_3
REMARK    2  A    between atoms: C_6  and  C_7
REMARK    3  A    between atoms: C_7  and  C_8
REMARK    4  A    between atoms: C_10  and  C_11
REMARK    5  A    between atoms: C_20  and  O_21
REMARK                            x       y       z     vdW  Elec       q    Type
REMARK                         _______ _______ _______ _____ _____    ______ ____
ROOT
ATOM      1  C   UNL     1       0.152  -1.126  -0.334  0.00  0.00    +0.000 C 
ATOM      2  C   UNL     1       1.122  -0.517   0.307  0.00  0.00    +0.000 C 
ENDROOT
BRANCH   2   3
ATOM      3  C   UNL     1       2.360  -0.116  -0.374  0.00  0.00    +0.000 A 
ATOM      4  C   UNL     1       2.448   1.115  -1.012  0.00  0.00    +0.000 A 
ATOM      5  C   UNL     1       3.601   1.882  -0.898  0.00  0.00    +0.000 A 
ATOM      6  C   UNL     1       4.704   1.448  -0.173  0.00  0.00    +0.000 A 
ATOM      7  O   UNL     1       5.408   2.368   0.611  0.00  0.00    +0.000 OA
ATOM      8  C   UNL     1       4.724   0.087   0.107  0.00  0.00    +0.000 A 
ATOM      9  C   UNL     1       3.577  -0.686  -0.020  0.00  0.00    +0.000 A 
ATOM     10  O   UNL     1       3.553  -1.977   0.513  0.00  0.00    +0.000 OA
ENDBRANCH   2   3
BRANCH   1  14
ATOM     11  C   UNL     1      -3.876   0.140   0.120  0.00  0.00    +0.000 A 
ATOM     12  C   UNL     1      -3.382  -0.253  -1.115  0.00  0.00    +0.000 A 
ATOM     13  C   UNL     1      -2.112  -0.799  -1.246  0.00  0.00    +0.000 A 
ATOM     14  C   UNL     1      -1.265  -0.785  -0.155  0.00  0.00    +0.000 A 
ATOM     15  C   UNL     1      -1.615  -0.003   0.924  0.00  0.00    +0.000 A 
ATOM     16  C   UNL     1      -2.952   0.297   1.144  0.00  0.00    +0.000 A 
BRANCH  11  18
ATOM     17  C   UNL     1      -6.027   1.024  -0.699  0.00  0.00    +0.000 C 
ATOM     18  O   UNL     1      -5.189   0.525   0.323  0.00  0.00    +0.000 OA
ENDBRANCH  11  18
BRANCH  16  19
ATOM     19  O   UNL     1      -3.401   0.486   2.454  0.00  0.00    +0.000 OA
ATOM     20  C   UNL     1      -3.270   1.768   3.036  0.00  0.00    +0.000 C 
ENDBRANCH  16  19
ENDBRANCH   1  14
BRANCH   1  21
ATOM     21  C   UNL     1       0.543  -2.002  -1.414  0.00  0.00    +0.000 C 
ATOM     22  N   UNL     1       0.897  -2.879  -2.099  0.00  0.00    +0.000 NA
ENDBRANCH   1  21
TORSDOF 5
