REMARK  Name = 
REMARK  4 active torsions:
REMARK  status: ('A' for Active; 'I' for Inactive)
REMARK    1  A    between atoms: C_14  and  O_15
REMARK    2  A    between atoms: O_15  and  C_16
REMARK    3  A    between atoms: C_22  and  C_23
REMARK    4  A    between atoms: C_24  and  C_25
REMARK                            x       y       z     vdW  Elec       q    Type
REMARK                         _______ _______ _______ _____ _____    ______ ____
ROOT
ATOM      1  C   UNL     1       0.183  -1.719  -1.102  0.00  0.00    +0.000 A 
ATOM      2  C   UNL     1      -0.226  -3.037  -1.284  0.00  0.00    +0.000 A 
ATOM      3  C   UNL     1       0.128  -4.056  -0.441  0.00  0.00    +0.000 A 
ATOM      4  O   UNL     1      -0.515  -5.293  -0.514  0.00  0.00    +0.000 OA
ATOM      5  C   UNL     1       1.354  -3.953   0.158  0.00  0.00    +0.000 A 
ATOM      6  C   UNL     1       1.877  -2.702   0.337  0.00  0.00    +0.000 A 
ATOM      7  C   UNL     1       1.203  -1.589  -0.160  0.00  0.00    +0.000 A 
ENDROOT
BRANCH   7   8
ATOM      8  C   UNL     1       2.028  -0.372  -0.143  0.00  0.00    +0.000 C 
ATOM      9  C   UNL     1       1.937   0.550   0.786  0.00  0.00    +0.000 C 
BRANCH   9  10
ATOM     10  C   UNL     1       3.027   1.522   0.932  0.00  0.00    +0.000 A 
ATOM     11  C   UNL     1       3.992   1.240   1.889  0.00  0.00    +0.000 A 
ATOM     12  C   UNL     1       5.320   1.567   1.734  0.00  0.00    +0.000 A 
ATOM     13  O   UNL     1       6.318   1.068   2.576  0.00  0.00    +0.000 OA
ATOM     14  C   UNL     1       5.679   2.290   0.604  0.00  0.00    +0.000 A 
ATOM     15  C   UNL     1       4.757   2.677  -0.328  0.00  0.00    +0.000 A 
ATOM     16  O   UNL     1       5.051   3.427  -1.451  0.00  0.00    +0.000 OA
ATOM     17  C   UNL     1       3.469   2.176  -0.199  0.00  0.00    +0.000 A 
ENDBRANCH   9  10
ENDBRANCH   7   8
BRANCH   1  18
ATOM     18  O   UNL     1       0.088  -0.730  -2.022  0.00  0.00    +0.000 OA
BRANCH  18  32
ATOM     19  O   UNL     1      -5.090  -1.088   0.105  0.00  0.00    +0.000 OA
ATOM     20  C   UNL     1      -4.015  -0.476   0.059  0.00  0.00    +0.000 A 
ATOM     21  C   UNL     1      -3.909   0.654   0.857  0.00  0.00    +0.000 A 
ATOM     22  C   UNL     1      -5.018   1.276   1.417  0.00  0.00    +0.000 A 
ATOM     23  C   UNL     1      -5.068   2.651   1.613  0.00  0.00    +0.000 A 
ATOM     24  C   UNL     1      -3.875   3.332   1.397  0.00  0.00    +0.000 A 
ATOM     25  C   UNL     1      -2.685   2.616   1.318  0.00  0.00    +0.000 A 
ATOM     26  C   UNL     1      -2.720   1.350   0.746  0.00  0.00    +0.000 A 
ATOM     27  N   UNL     1      -1.745   0.859  -0.027  0.00  0.00    +0.000 NA
ATOM     28  C   UNL     1      -1.856  -0.281  -0.760  0.00  0.00    +0.000 A 
ATOM     29  N   UNL     1      -3.125  -0.677  -0.944  0.00  0.00    +0.000 N 
ATOM     30  C   UNL     1      -3.287  -1.515  -2.092  0.00  0.00    +0.000 C 
ATOM     31  C   UNL     1      -1.947  -1.638  -2.733  0.00  0.00    +0.000 C 
ATOM     32  C   UNL     1      -1.330  -0.128  -2.325  0.00  0.00    +0.000 C 
ENDBRANCH  18  32
ENDBRANCH   1  18
TORSDOF 4
