REMARK  Name = 
REMARK  8 active torsions:
REMARK  status: ('A' for Active; 'I' for Inactive)
REMARK    1  A    between atoms: S_2  and  C_5
REMARK    2  A    between atoms: C_5  and  C_6
REMARK    3  A    between atoms: C_6  and  C_7
REMARK    4  A    between atoms: C_6  and  O_14
REMARK    5  A    between atoms: C_7  and  N_8
REMARK    6  A    between atoms: O_14  and  C_15
REMARK    7  A    between atoms: C_21  and  C_22
REMARK    8  A    between atoms: C_23  and  C_24
REMARK                            x       y       z     vdW  Elec       q    Type
REMARK                         _______ _______ _______ _____ _____    ______ ____
ROOT
ATOM      1  C   UNL     1       0.160   0.116   0.052  0.00  0.00    +0.000 A 
ATOM      2  C   UNL     1       0.240   0.649   1.335  0.00  0.00    +0.000 A 
ATOM      3  C   UNL     1      -0.524   0.108   2.363  0.00  0.00    +0.000 A 
ATOM      4  O   UNL     1      -1.252   0.920   3.240  0.00  0.00    +0.000 OA
ATOM      5  C   UNL     1      -0.846  -1.235   2.203  0.00  0.00    +0.000 A 
ATOM      6  C   UNL     1      -0.708  -1.860   0.967  0.00  0.00    +0.000 A 
ATOM      7  C   UNL     1      -0.424  -1.124  -0.181  0.00  0.00    +0.000 A 
ENDROOT
BRANCH   7   8
ATOM      8  C   UNL     1      -1.294  -1.188  -1.369  0.00  0.00    +0.000 C 
ATOM      9  C   UNL     1      -2.273  -0.410  -1.653  0.00  0.00    +0.000 C 
BRANCH   9  10
ATOM     10  C   UNL     1      -3.697  -0.538  -1.522  0.00  0.00    +0.000 A 
ATOM     11  C   UNL     1      -4.438   0.600  -1.837  0.00  0.00    +0.000 A 
ATOM     12  C   UNL     1      -5.617   0.918  -1.185  0.00  0.00    +0.000 A 
ATOM     13  O   UNL     1      -6.491   1.902  -1.634  0.00  0.00    +0.000 OA
ATOM     14  C   UNL     1      -6.027   0.162  -0.092  0.00  0.00    +0.000 A 
ATOM     15  C   UNL     1      -5.236  -0.905   0.319  0.00  0.00    +0.000 A 
ATOM     16  O   UNL     1      -5.456  -1.572   1.527  0.00  0.00    +0.000 OA
ATOM     17  C   UNL     1      -4.370  -1.394  -0.655  0.00  0.00    +0.000 A 
ENDBRANCH   9  10
ENDBRANCH   7   8
BRANCH   1  18
ATOM     18  O   UNL     1       0.954   0.590  -0.998  0.00  0.00    +0.000 OA
BRANCH  18  19
ATOM     19  C   UNL     1       2.366   0.864  -0.434  0.00  0.00    +0.000 C 
BRANCH  19  20
ATOM     20  C   UNL     1       2.523   2.262  -1.297  0.00  0.00    +0.000 C 
BRANCH  20  22
ATOM     21  O   UNL     1       2.770   4.417  -0.362  0.00  0.00    +0.000 OA
ATOM     22  S   UNL     1       3.156   3.480  -0.178  0.00  0.00    +0.000 S 
ATOM     23  O   UNL     1       2.876   3.118   1.263  0.00  0.00    +0.000 OA
ATOM     24  O   UNL     1       4.840   3.614  -0.263  0.00  0.00    +0.000 OA
ENDBRANCH  20  22
ENDBRANCH  19  20
BRANCH  19  25
ATOM     25  C   UNL     1       3.083  -0.022  -1.628  0.00  0.00    +0.000 C 
BRANCH  25  26
ATOM     26  N   UNL     1       3.699  -1.147  -0.931  0.00  0.00    +0.000 N 
ATOM     27  C   UNL     1       3.254  -2.413  -1.121  0.00  0.00    +0.000 A 
ATOM     28  C   UNL     1       3.616  -3.455  -0.276  0.00  0.00    +0.000 A 
ATOM     29  C   UNL     1       4.812  -3.337   0.387  0.00  0.00    +0.000 A 
ATOM     30  C   UNL     1       5.412  -2.088   0.444  0.00  0.00    +0.000 A 
ATOM     31  C   UNL     1       4.891  -1.032  -0.295  0.00  0.00    +0.000 A 
ENDBRANCH  25  26
ENDBRANCH  19  25
ENDBRANCH  18  19
ENDBRANCH   1  18
TORSDOF 8
