REMARK  Name = 
REMARK  8 active torsions:
REMARK  status: ('A' for Active; 'I' for Inactive)
REMARK    1  A    between atoms: S_2  and  C_5
REMARK    2  A    between atoms: C_5  and  C_6
REMARK    3  A    between atoms: C_6  and  C_7
REMARK    4  A    between atoms: C_6  and  O_14
REMARK    5  A    between atoms: C_7  and  N_8
REMARK    6  A    between atoms: O_14  and  C_15
REMARK    7  A    between atoms: C_21  and  C_22
REMARK    8  A    between atoms: C_23  and  C_24
REMARK                            x       y       z     vdW  Elec       q    Type
REMARK                         _______ _______ _______ _____ _____    ______ ____
ROOT
ATOM      1  C   UNL     1       0.024  -1.187   0.281  0.00  0.00    +0.000 A 
ATOM      2  C   UNL     1       0.200  -2.525  -0.066  0.00  0.00    +0.000 A 
ATOM      3  C   UNL     1       0.784  -2.824  -1.294  0.00  0.00    +0.000 A 
ATOM      4  O   UNL     1       1.387  -4.068  -1.513  0.00  0.00    +0.000 OA
ATOM      5  C   UNL     1       1.094  -1.771  -2.148  0.00  0.00    +0.000 A 
ATOM      6  C   UNL     1       1.226  -0.489  -1.626  0.00  0.00    +0.000 A 
ATOM      7  C   UNL     1       0.740  -0.174  -0.357  0.00  0.00    +0.000 A 
ENDROOT
BRANCH   7   8
ATOM      8  C   UNL     1       1.227   0.890   0.437  0.00  0.00    +0.000 C 
ATOM      9  C   UNL     1       2.201   1.373   0.967  0.00  0.00    +0.000 C 
BRANCH   9  10
ATOM     10  C   UNL     1       3.601   1.480   1.020  0.00  0.00    +0.000 A 
ATOM     11  C   UNL     1       4.180   2.741   0.895  0.00  0.00    +0.000 A 
ATOM     12  C   UNL     1       5.487   2.902   0.442  0.00  0.00    +0.000 A 
ATOM     13  O   UNL     1       6.153   4.119   0.492  0.00  0.00    +0.000 OA
ATOM     14  C   UNL     1       6.198   1.787   0.008  0.00  0.00    +0.000 A 
ATOM     15  C   UNL     1       5.674   0.515   0.198  0.00  0.00    +0.000 A 
ATOM     16  O   UNL     1       6.281  -0.602  -0.373  0.00  0.00    +0.000 OA
ATOM     17  C   UNL     1       4.530   0.442   0.970  0.00  0.00    +0.000 A 
ENDBRANCH   9  10
ENDBRANCH   7   8
BRANCH   1  18
ATOM     18  O   UNL     1      -1.007  -0.784   1.139  0.00  0.00    +0.000 OA
BRANCH  18  19
ATOM     19  C   UNL     1      -2.269  -0.529   0.290  0.00  0.00    +0.000 C 
BRANCH  19  20
ATOM     20  C   UNL     1      -2.522  -2.141   0.074  0.00  0.00    +0.000 C 
BRANCH  20  22
ATOM     21  O   UNL     1      -3.057  -3.391  -2.101  0.00  0.00    +0.000 OA
ATOM     22  S   UNL     1      -3.330  -2.265  -1.516  0.00  0.00    +0.000 S 
ATOM     23  O   UNL     1      -4.803  -2.059  -1.265  0.00  0.00    +0.000 OA
ATOM     24  O   UNL     1      -2.830  -0.996  -2.514  0.00  0.00    +0.000 OA
ENDBRANCH  20  22
ENDBRANCH  19  20
BRANCH  19  25
ATOM     25  C   UNL     1      -3.236  -0.490   1.623  0.00  0.00    +0.000 C 
BRANCH  25  26
ATOM     26  N   UNL     1      -4.016   0.704   1.303  0.00  0.00    +0.000 N 
ATOM     27  C   UNL     1      -3.414   1.888   1.026  0.00  0.00    +0.000 A 
ATOM     28  C   UNL     1      -4.105   2.913   0.389  0.00  0.00    +0.000 A 
ATOM     29  C   UNL     1      -5.176   2.500  -0.395  0.00  0.00    +0.000 A 
ATOM     30  C   UNL     1      -5.876   1.374   0.020  0.00  0.00    +0.000 A 
ATOM     31  C   UNL     1      -5.346   0.668   1.094  0.00  0.00    +0.000 A 
ENDBRANCH  25  26
ENDBRANCH  19  25
ENDBRANCH  18  19
ENDBRANCH   1  18
TORSDOF 8
