REMARK  Name = 
REMARK  7 active torsions:
REMARK  status: ('A' for Active; 'I' for Inactive)
REMARK    1  A    between atoms: N_2  and  C_4
REMARK    2  A    between atoms: C_4  and  C_5
REMARK    3  A    between atoms: C_5  and  O_6
REMARK    4  A    between atoms: C_5  and  C_24
REMARK    5  A    between atoms: O_6  and  C_7
REMARK    6  A    between atoms: C_13  and  C_14
REMARK    7  A    between atoms: C_15  and  C_16
REMARK                            x       y       z     vdW  Elec       q    Type
REMARK                         _______ _______ _______ _____ _____    ______ ____
ROOT
ATOM      1  C   UNL     1       0.272  -1.886  -0.036  0.00  0.00    +0.000 A 
ATOM      2  C   UNL     1       0.194  -3.230   0.302  0.00  0.00    +0.000 A 
ATOM      3  C   UNL     1       0.942  -3.719   1.369  0.00  0.00    +0.000 A 
ATOM      4  O   UNL     1       0.510  -4.855   2.062  0.00  0.00    +0.000 OA
ATOM      5  C   UNL     1       1.949  -2.921   1.889  0.00  0.00    +0.000 A 
ATOM      6  C   UNL     1       2.271  -1.791   1.190  0.00  0.00    +0.000 A 
ATOM      7  C   UNL     1       1.535  -1.324   0.103  0.00  0.00    +0.000 A 
ENDROOT
BRANCH   7   8
ATOM      8  C   UNL     1       1.819  -0.064  -0.553  0.00  0.00    +0.000 C 
ATOM      9  C   UNL     1       2.759   0.165  -1.432  0.00  0.00    +0.000 C 
BRANCH   9  10
ATOM     10  C   UNL     1       3.880   1.098  -1.208  0.00  0.00    +0.000 A 
ATOM     11  C   UNL     1       5.105   0.636  -0.735  0.00  0.00    +0.000 A 
ATOM     12  C   UNL     1       5.744   1.212   0.353  0.00  0.00    +0.000 A 
ATOM     13  O   UNL     1       6.593   0.488   1.197  0.00  0.00    +0.000 OA
ATOM     14  C   UNL     1       5.266   2.408   0.873  0.00  0.00    +0.000 A 
ATOM     15  C   UNL     1       4.395   3.111   0.049  0.00  0.00    +0.000 A 
ATOM     16  O   UNL     1       3.913   4.314   0.575  0.00  0.00    +0.000 OA
ATOM     17  C   UNL     1       3.612   2.419  -0.868  0.00  0.00    +0.000 A 
ENDBRANCH   9  10
ENDBRANCH   7   8
BRANCH   1  18
ATOM     18  O   UNL     1      -0.836  -1.148  -0.478  0.00  0.00    +0.000 OA
BRANCH  18  19
ATOM     19  C   UNL     1      -1.594  -0.605   0.756  0.00  0.00    +0.000 C 
BRANCH  19  20
ATOM     20  C   UNL     1      -2.889  -0.174  -0.125  0.00  0.00    +0.000 A 
ATOM     21  C   UNL     1      -4.046  -0.231   0.653  0.00  0.00    +0.000 A 
ATOM     22  C   UNL     1      -5.076   0.663   0.520  0.00  0.00    +0.000 A 
ATOM     23  C   UNL     1      -4.805   1.906  -0.022  0.00  0.00    +0.000 A 
ATOM     24  C   UNL     1      -3.707   1.991  -0.852  0.00  0.00    +0.000 A 
ATOM     25  C   UNL     1      -2.713   1.020  -0.814  0.00  0.00    +0.000 A 
ATOM     26  O   UNL     1      -3.820   3.247  -1.456  0.00  0.00    +0.000 OA
ATOM     27  C   UNL     1      -4.788   4.027  -0.760  0.00  0.00    +0.000 C 
ATOM     28  O   UNL     1      -5.134   3.213   0.355  0.00  0.00    +0.000 OA
ENDBRANCH  19  20
BRANCH  19  29
ATOM     29  C   UNL     1      -2.188  -2.095   1.120  0.00  0.00    +0.000 C 
BRANCH  29  31
ATOM     30  O   UNL     1      -3.259  -2.860   0.173  0.00  0.00    +0.000 OA
ATOM     31  N   UNL     1      -2.963  -2.597   0.093  0.00  0.00    +0.000 N 
ATOM     32  O   UNL     1      -2.941  -2.416  -1.280  0.00  0.00    +0.000 OA
ENDBRANCH  29  31
ENDBRANCH  19  29
ENDBRANCH  18  19
ENDBRANCH   1  18
TORSDOF 7
