REMARK  Name = 
REMARK  4 active torsions:
REMARK  status: ('A' for Active; 'I' for Inactive)
REMARK    1  A    between atoms: C_8  and  O_9
REMARK    2  A    between atoms: O_9  and  C_10
REMARK    3  A    between atoms: C_16  and  C_17
REMARK    4  A    between atoms: C_18  and  C_19
REMARK                            x       y       z     vdW  Elec       q    Type
REMARK                         _______ _______ _______ _____ _____    ______ ____
ROOT
ATOM      1  C   UNL     1      -0.273  -1.626   0.206  0.00  0.00    +0.000 A 
ATOM      2  C   UNL     1      -0.020  -2.915   0.665  0.00  0.00    +0.000 A 
ATOM      3  C   UNL     1      -0.873  -3.619   1.483  0.00  0.00    +0.000 A 
ATOM      4  O   UNL     1      -0.272  -4.412   2.462  0.00  0.00    +0.000 OA
ATOM      5  C   UNL     1      -2.184  -3.234   1.505  0.00  0.00    +0.000 A 
ATOM      6  C   UNL     1      -2.550  -2.248   0.592  0.00  0.00    +0.000 A 
ATOM      7  C   UNL     1      -1.620  -1.278   0.220  0.00  0.00    +0.000 A 
ENDROOT
BRANCH   7   8
ATOM      8  C   UNL     1      -1.932   0.143   0.170  0.00  0.00    +0.000 C 
ATOM      9  C   UNL     1      -2.520   0.827   1.131  0.00  0.00    +0.000 C 
BRANCH   9  10
ATOM     10  C   UNL     1      -3.801   1.532   0.970  0.00  0.00    +0.000 A 
ATOM     11  C   UNL     1      -5.020   0.855   1.054  0.00  0.00    +0.000 A 
ATOM     12  C   UNL     1      -6.008   1.000   0.105  0.00  0.00    +0.000 A 
ATOM     13  O   UNL     1      -6.847  -0.052  -0.285  0.00  0.00    +0.000 OA
ATOM     14  C   UNL     1      -5.948   2.091  -0.754  0.00  0.00    +0.000 A 
ATOM     15  C   UNL     1      -4.894   2.991  -0.641  0.00  0.00    +0.000 A 
ATOM     16  O   UNL     1      -5.069   4.356  -0.891  0.00  0.00    +0.000 OA
ATOM     17  C   UNL     1      -3.803   2.639   0.148  0.00  0.00    +0.000 A 
ENDBRANCH   9  10
ENDBRANCH   7   8
BRANCH   1  18
ATOM     18  O   UNL     1       0.719  -0.780  -0.316  0.00  0.00    +0.000 OA
BRANCH  18  26
ATOM     19  C   UNL     1       4.331   1.971  -1.660  0.00  0.00    +0.000 C 
ATOM     20  C   UNL     1       4.346   1.885  -1.635  0.00  0.00    +0.000 C 
ATOM     21  C   UNL     1       5.039   2.954  -2.458  0.00  0.00    +0.000 C 
ATOM     22  O   UNL     1       4.441   2.146  -0.345  0.00  0.00    +0.000 OA
ATOM     23  C   UNL     1       4.288   0.791   0.346  0.00  0.00    +0.000 C 
ATOM     24  O   UNL     1       2.945   0.513  -0.217  0.00  0.00    +0.000 OA
ATOM     25  C   UNL     1       2.942  -0.475  -1.279  0.00  0.00    +0.000 C 
ATOM     26  C   UNL     1       1.950  -1.672  -0.524  0.00  0.00    +0.000 C 
ATOM     27  C   UNL     1       2.595  -1.383   0.910  0.00  0.00    +0.000 C 
ATOM     28  O   UNL     1       2.011  -0.919   1.895  0.00  0.00    +0.000 OA
ATOM     29  O   UNL     1       3.921  -1.302   0.720  0.00  0.00    +0.000 OA
ATOM     30  C   UNL     1       4.261  -1.397  -0.750  0.00  0.00    +0.000 C 
ATOM     31  C   UNL     1       5.246  -0.012  -0.825  0.00  0.00    +0.000 C 
ATOM     32  O   UNL     1       4.599   0.631  -2.001  0.00  0.00    +0.000 OA
ENDBRANCH  18  26
ENDBRANCH   1  18
TORSDOF 4
