REMARK  Name = 
REMARK  12 active torsions:
REMARK  status: ('A' for Active; 'I' for Inactive)
REMARK    1  A    between atoms: C_2  and  O_3
REMARK    2  A    between atoms: O_3  and  C_4
REMARK    3  A    between atoms: C_4  and  C_6
REMARK    4  A    between atoms: C_6  and  C_7
REMARK    5  A    between atoms: C_7  and  C_8
REMARK    6  A    between atoms: C_7  and  O_14
REMARK    7  A    between atoms: C_8  and  C_9
REMARK    8  A    between atoms: C_9  and  O_11
REMARK    9  A    between atoms: O_11  and  C_12
REMARK   10  A    between atoms: O_14  and  C_15
REMARK   11  A    between atoms: C_21  and  C_22
REMARK   12  A    between atoms: C_23  and  C_24
REMARK                            x       y       z     vdW  Elec       q    Type
REMARK                         _______ _______ _______ _____ _____    ______ ____
ROOT
ATOM      1  C   UNL     1      -0.049   0.907   0.102  0.00  0.00    +0.000 A 
ATOM      2  C   UNL     1      -0.027   1.958   1.012  0.00  0.00    +0.000 A 
ATOM      3  C   UNL     1       0.806   3.054   0.819  0.00  0.00    +0.000 A 
ATOM      4  O   UNL     1       1.420   3.683   1.907  0.00  0.00    +0.000 OA
ATOM      5  C   UNL     1       1.290   3.200  -0.475  0.00  0.00    +0.000 A 
ATOM      6  C   UNL     1       1.385   2.101  -1.320  0.00  0.00    +0.000 A 
ATOM      7  C   UNL     1       0.828   0.876  -0.975  0.00  0.00    +0.000 A 
ENDROOT
BRANCH   7   8
ATOM      8  C   UNL     1       1.552  -0.343  -1.356  0.00  0.00    +0.000 C 
ATOM      9  C   UNL     1       1.919  -1.279  -0.521  0.00  0.00    +0.000 C 
BRANCH   9  10
ATOM     10  C   UNL     1       3.312  -1.671  -0.270  0.00  0.00    +0.000 A 
ATOM     11  C   UNL     1       4.273  -1.609  -1.259  0.00  0.00    +0.000 A 
ATOM     12  C   UNL     1       5.568  -1.205  -0.960  0.00  0.00    +0.000 A 
ATOM     13  O   UNL     1       6.551  -1.124  -1.940  0.00  0.00    +0.000 OA
ATOM     14  C   UNL     1       5.989  -1.097   0.359  0.00  0.00    +0.000 A 
ATOM     15  C   UNL     1       5.061  -1.245   1.364  0.00  0.00    +0.000 A 
ATOM     16  O   UNL     1       5.460  -0.834   2.640  0.00  0.00    +0.000 OA
ATOM     17  C   UNL     1       3.755  -1.475   1.030  0.00  0.00    +0.000 A 
ENDBRANCH   9  10
ENDBRANCH   7   8
BRANCH   1  18
ATOM     18  O   UNL     1      -0.766  -0.261   0.327  0.00  0.00    +0.000 OA
BRANCH  18  19
ATOM     19  C   UNL     1      -1.984  -0.580  -0.291  0.00  0.00    +0.000 C 
BRANCH  19  20
ATOM     20  C   UNL     1      -2.515   0.514  -1.177  0.00  0.00    +0.000 C 
BRANCH  20  21
ATOM     21  C   UNL     1      -2.993   1.694  -0.424  0.00  0.00    +0.000 C 
ATOM     22  O   UNL     1      -2.934   2.805  -1.028  0.00  0.00    +0.000 OA
BRANCH  21  23
ATOM     23  O   UNL     1      -3.894   1.605   0.630  0.00  0.00    +0.000 OA
BRANCH  23  25
ATOM     24  C   UNL     1      -4.185   4.009   0.464  0.00  0.00    +0.000 C 
ATOM     25  C   UNL     1      -4.191   2.777   1.344  0.00  0.00    +0.000 C 
ENDBRANCH  23  25
ENDBRANCH  21  23
ENDBRANCH  20  21
ENDBRANCH  19  20
BRANCH  19  26
ATOM     26  C   UNL     1      -3.073  -0.941   0.685  0.00  0.00    +0.000 C 
BRANCH  26  27
ATOM     27  C   UNL     1      -3.999  -1.972   0.170  0.00  0.00    +0.000 C 
ATOM     28  O   UNL     1      -5.053  -1.719  -0.464  0.00  0.00    +0.000 OA
BRANCH  27  29
ATOM     29  O   UNL     1      -3.573  -3.288   0.188  0.00  0.00    +0.000 OA
BRANCH  29  30
ATOM     30  C   UNL     1      -4.215  -4.295  -0.556  0.00  0.00    +0.000 C 
ATOM     31  C   UNL     1      -5.721  -4.247  -0.422  0.00  0.00    +0.000 C 
ENDBRANCH  29  30
ENDBRANCH  27  29
ENDBRANCH  26  27
ENDBRANCH  19  26
ENDBRANCH  18  19
ENDBRANCH   1  18
TORSDOF 12
