REMARK  Name = 
REMARK  6 active torsions:
REMARK  status: ('A' for Active; 'I' for Inactive)
REMARK    1  A    between atoms: C_4  and  O_5
REMARK    2  A    between atoms: O_5  and  C_6
REMARK    3  A    between atoms: C_12  and  C_13
REMARK    4  A    between atoms: C_14  and  C_15
REMARK    5  A    between atoms: N_25  and  C_26
REMARK    6  A    between atoms: C_26  and  C_27
REMARK                            x       y       z     vdW  Elec       q    Type
REMARK                         _______ _______ _______ _____ _____    ______ ____
ROOT
ATOM      1  C   UNL     1      -0.381   0.754  -0.102  0.00  0.00    +0.000 A 
ATOM      2  C   UNL     1       0.062   1.469  -1.215  0.00  0.00    +0.000 A 
ATOM      3  C   UNL     1      -0.442   2.750  -1.409  0.00  0.00    +0.000 A 
ATOM      4  O   UNL     1      -0.487   3.158  -2.741  0.00  0.00    +0.000 OA
ATOM      5  C   UNL     1      -1.321   3.244  -0.452  0.00  0.00    +0.000 A 
ATOM      6  C   UNL     1      -1.922   2.418   0.492  0.00  0.00    +0.000 A 
ATOM      7  C   UNL     1      -1.525   1.101   0.588  0.00  0.00    +0.000 A 
ENDROOT
BRANCH   7   8
ATOM      8  C   UNL     1      -2.437  -0.001   0.913  0.00  0.00    +0.000 C 
ATOM      9  C   UNL     1      -3.241  -0.407  -0.031  0.00  0.00    +0.000 C 
BRANCH   9  10
ATOM     10  C   UNL     1      -4.577  -0.893   0.037  0.00  0.00    +0.000 A 
ATOM     11  C   UNL     1      -5.629   0.016   0.095  0.00  0.00    +0.000 A 
ATOM     12  C   UNL     1      -6.889  -0.554   0.232  0.00  0.00    +0.000 A 
ATOM     13  O   UNL     1      -7.929   0.053   0.908  0.00  0.00    +0.000 OA
ATOM     14  C   UNL     1      -7.137  -1.831  -0.259  0.00  0.00    +0.000 A 
ATOM     15  C   UNL     1      -6.087  -2.600  -0.732  0.00  0.00    +0.000 A 
ATOM     16  O   UNL     1      -6.271  -3.961  -0.995  0.00  0.00    +0.000 OA
ATOM     17  C   UNL     1      -4.851  -2.008  -0.753  0.00  0.00    +0.000 A 
ENDBRANCH   9  10
ENDBRANCH   7   8
BRANCH   1  18
ATOM     18  O   UNL     1       0.376  -0.318   0.256  0.00  0.00    +0.000 OA
BRANCH  18  22
ATOM     19  O   UNL     1       3.049   2.175   0.675  0.00  0.00    +0.000 OA
ATOM     20  C   UNL     1       2.504   1.186   0.990  0.00  0.00    +0.000 C 
ATOM     21  C   UNL     1       1.362   1.134   1.809  0.00  0.00    +0.000 C 
ATOM     22  C   UNL     1       0.832  -0.420   1.732  0.00  0.00    +0.000 C 
ATOM     23  C   UNL     1       2.247  -1.069   1.338  0.00  0.00    +0.000 C 
ATOM     24  O   UNL     1       2.276  -2.287   1.609  0.00  0.00    +0.000 OA
ATOM     25  N   UNL     1       3.135  -0.086   0.949  0.00  0.00    +0.000 N 
BRANCH  25  26
ATOM     26  C   UNL     1       4.358  -0.615   0.655  0.00  0.00    +0.000 C 
BRANCH  26  27
ATOM     27  C   UNL     1       5.537   0.021   0.175  0.00  0.00    +0.000 A 
ATOM     28  C   UNL     1       6.675  -0.303   0.928  0.00  0.00    +0.000 A 
ATOM     29  C   UNL     1       7.837  -0.800   0.422  0.00  0.00    +0.000 A 
ATOM     30  C   UNL     1       7.991  -0.927  -0.918  0.00  0.00    +0.000 A 
ATOM     31  C   UNL     1       7.048  -0.379  -1.718  0.00  0.00    +0.000 A 
ATOM     32  C   UNL     1       5.837  -0.020  -1.191  0.00  0.00    +0.000 A 
ENDBRANCH  26  27
ENDBRANCH  25  26
ENDBRANCH  18  22
ENDBRANCH   1  18
TORSDOF 6
