REMARK  Name = 
REMARK  6 active torsions:
REMARK  status: ('A' for Active; 'I' for Inactive)
REMARK    1  A    between atoms: C_4  and  O_5
REMARK    2  A    between atoms: O_5  and  C_6
REMARK    3  A    between atoms: C_12  and  C_13
REMARK    4  A    between atoms: C_14  and  C_15
REMARK    5  A    between atoms: N_25  and  C_26
REMARK    6  A    between atoms: C_26  and  C_27
REMARK                            x       y       z     vdW  Elec       q    Type
REMARK                         _______ _______ _______ _____ _____    ______ ____
ROOT
ATOM      1  C   UNL     1      -0.792   0.197  -0.049  0.00  0.00    +0.000 A 
ATOM      2  C   UNL     1      -1.207   0.274  -1.378  0.00  0.00    +0.000 A 
ATOM      3  C   UNL     1      -1.844  -0.823  -1.960  0.00  0.00    +0.000 A 
ATOM      4  O   UNL     1      -2.942  -0.588  -2.801  0.00  0.00    +0.000 OA
ATOM      5  C   UNL     1      -1.736  -2.005  -1.227  0.00  0.00    +0.000 A 
ATOM      6  C   UNL     1      -1.509  -1.980   0.150  0.00  0.00    +0.000 A 
ATOM      7  C   UNL     1      -1.306  -0.770   0.814  0.00  0.00    +0.000 A 
ENDROOT
BRANCH   7   8
ATOM      8  C   UNL     1      -2.157  -0.277   1.902  0.00  0.00    +0.000 C 
ATOM      9  C   UNL     1      -3.318  -0.625   2.281  0.00  0.00    +0.000 C 
BRANCH   9  10
ATOM     10  C   UNL     1      -4.659  -0.366   1.748  0.00  0.00    +0.000 A 
ATOM     11  C   UNL     1      -5.222   0.902   1.694  0.00  0.00    +0.000 A 
ATOM     12  C   UNL     1      -6.029   1.290   0.628  0.00  0.00    +0.000 A 
ATOM     13  O   UNL     1      -6.526   2.580   0.516  0.00  0.00    +0.000 OA
ATOM     14  C   UNL     1      -6.248   0.429  -0.436  0.00  0.00    +0.000 A 
ATOM     15  C   UNL     1      -5.683  -0.833  -0.410  0.00  0.00    +0.000 A 
ATOM     16  O   UNL     1      -5.711  -1.622  -1.534  0.00  0.00    +0.000 OA
ATOM     17  C   UNL     1      -5.266  -1.251   0.849  0.00  0.00    +0.000 A 
ENDBRANCH   9  10
ENDBRANCH   7   8
BRANCH   1  18
ATOM     18  O   UNL     1      -0.062   1.201   0.585  0.00  0.00    +0.000 OA
BRANCH  18  22
ATOM     19  O   UNL     1       4.149   2.283   0.772  0.00  0.00    +0.000 OA
ATOM     20  C   UNL     1       3.341   1.777   0.512  0.00  0.00    +0.000 C 
ATOM     21  C   UNL     1       1.973   2.218   0.916  0.00  0.00    +0.000 C 
ATOM     22  C   UNL     1       1.121   1.546  -0.335  0.00  0.00    +0.000 C 
ATOM     23  C   UNL     1       1.827   0.093  -0.132  0.00  0.00    +0.000 C 
ATOM     24  O   UNL     1       1.664  -0.755  -1.063  0.00  0.00    +0.000 OA
ATOM     25  N   UNL     1       3.207   0.445   0.105  0.00  0.00    +0.000 N 
BRANCH  25  26
ATOM     26  C   UNL     1       4.131  -0.605   0.530  0.00  0.00    +0.000 C 
BRANCH  26  27
ATOM     27  C   UNL     1       5.391  -0.593  -0.225  0.00  0.00    +0.000 A 
ATOM     28  C   UNL     1       6.000   0.559  -0.701  0.00  0.00    +0.000 A 
ATOM     29  C   UNL     1       7.362   0.743  -0.510  0.00  0.00    +0.000 A 
ATOM     30  C   UNL     1       8.185  -0.272  -0.063  0.00  0.00    +0.000 A 
ATOM     31  C   UNL     1       7.614  -1.518   0.117  0.00  0.00    +0.000 A 
ATOM     32  C   UNL     1       6.248  -1.655   0.037  0.00  0.00    +0.000 A 
ENDBRANCH  26  27
ENDBRANCH  25  26
ENDBRANCH  18  22
ENDBRANCH   1  18
TORSDOF 6
