REMARK  Name = 
REMARK  6 active torsions:
REMARK  status: ('A' for Active; 'I' for Inactive)
REMARK    1  A    between atoms: C_2  and  O_5
REMARK    2  A    between atoms: O_5  and  C_6
REMARK    3  A    between atoms: C_10  and  O_11
REMARK    4  A    between atoms: O_11  and  C_12
REMARK    5  A    between atoms: C_18  and  C_19
REMARK    6  A    between atoms: C_20  and  C_21
REMARK                            x       y       z     vdW  Elec       q    Type
REMARK                         _______ _______ _______ _____ _____    ______ ____
ROOT
ATOM      1  C   UNL     1      -0.761  -1.682   0.126  0.00  0.00    +0.000 A 
ATOM      2  C   UNL     1      -0.442  -2.861   0.777  0.00  0.00    +0.000 A 
ATOM      3  C   UNL     1      -0.643  -4.116   0.208  0.00  0.00    +0.000 A 
ATOM      4  O   UNL     1       0.373  -5.046   0.468  0.00  0.00    +0.000 OA
ATOM      5  C   UNL     1      -1.079  -4.092  -1.113  0.00  0.00    +0.000 A 
ATOM      6  C   UNL     1      -1.838  -3.007  -1.534  0.00  0.00    +0.000 A 
ATOM      7  C   UNL     1      -1.618  -1.772  -0.960  0.00  0.00    +0.000 A 
ENDROOT
BRANCH   7   8
ATOM      8  C   UNL     1      -2.554  -0.650  -1.108  0.00  0.00    +0.000 C 
ATOM      9  C   UNL     1      -3.757  -0.801  -0.559  0.00  0.00    +0.000 C 
BRANCH   9  10
ATOM     10  C   UNL     1      -4.529   0.324  -0.034  0.00  0.00    +0.000 A 
ATOM     11  C   UNL     1      -5.916   0.332  -0.051  0.00  0.00    +0.000 A 
ATOM     12  C   UNL     1      -6.583   1.505   0.237  0.00  0.00    +0.000 A 
ATOM     13  O   UNL     1      -7.953   1.557   0.453  0.00  0.00    +0.000 OA
ATOM     14  C   UNL     1      -5.888   2.690   0.389  0.00  0.00    +0.000 A 
ATOM     15  C   UNL     1      -4.504   2.732   0.273  0.00  0.00    +0.000 A 
ATOM     16  O   UNL     1      -3.844   3.931   0.107  0.00  0.00    +0.000 OA
ATOM     17  C   UNL     1      -3.869   1.503   0.291  0.00  0.00    +0.000 A 
ENDBRANCH   9  10
ENDBRANCH   7   8
BRANCH   1  18
ATOM     18  O   UNL     1      -0.123  -0.463   0.395  0.00  0.00    +0.000 OA
BRANCH  18  23
ATOM     19  C   UNL     1       4.340   1.190  -0.307  0.00  0.00    +0.000 C 
ATOM     20  O   UNL     1       4.918   1.267  -1.435  0.00  0.00    +0.000 OA
ATOM     21  N   UNL     1       3.180   0.363  -0.151  0.00  0.00    +0.000 N 
ATOM     22  C   UNL     1       1.840   0.762   0.283  0.00  0.00    +0.000 C 
ATOM     23  C   UNL     1       1.368  -0.769   0.661  0.00  0.00    +0.000 C 
ATOM     24  C   UNL     1       1.599  -1.225  -0.907  0.00  0.00    +0.000 C 
ATOM     25  C   UNL     1       3.034  -0.829  -0.937  0.00  0.00    +0.000 C 
ATOM     26  O   UNL     1       3.976  -1.511  -1.400  0.00  0.00    +0.000 OA
BRANCH  19  27
ATOM     27  O   UNL     1       5.086   1.558   0.819  0.00  0.00    +0.000 OA
BRANCH  27  29
ATOM     28  C   UNL     1       6.287   2.186   0.420  0.00  0.00    +0.000 C 
ATOM     29  C   UNL     1       6.290   2.265   0.554  0.00  0.00    +0.000 C 
ATOM     30  C   UNL     1       6.094   3.249  -0.591  0.00  0.00    +0.000 C 
ATOM     31  C   UNL     1       7.518   1.411   0.444  0.00  0.00    +0.000 C 
ENDBRANCH  27  29
ENDBRANCH  19  27
ENDBRANCH  18  23
ENDBRANCH   1  18
TORSDOF 6
