REMARK  Name = 
REMARK  8 active torsions:
REMARK  status: ('A' for Active; 'I' for Inactive)
REMARK    1  A    between atoms: C_2  and  C_3
REMARK    2  A    between atoms: C_5  and  O_6
REMARK    3  A    between atoms: O_6  and  C_7
REMARK    4  A    between atoms: C_10  and  C_11
REMARK    5  A    between atoms: C_12  and  C_13
REMARK    6  A    between atoms: C_18  and  O_19
REMARK    7  A    between atoms: O_19  and  C_20
REMARK    8  A    between atoms: C_22  and  C_23
REMARK                            x       y       z     vdW  Elec       q    Type
REMARK                         _______ _______ _______ _____ _____    ______ ____
ROOT
ATOM      1  C   UNL     1       0.111   0.477  -1.087  0.00  0.00    +0.000 C 
ATOM      2  C   UNL     1       0.749  -0.461  -1.800  0.00  0.00    +0.000 C 
ENDROOT
BRANCH   1   6
ATOM      3  C   UNL     1      -3.677   0.057  -0.270  0.00  0.00    +0.000 A 
ATOM      4  C   UNL     1      -3.076  -1.133  -0.726  0.00  0.00    +0.000 A 
ATOM      5  C   UNL     1      -1.711  -1.183  -0.732  0.00  0.00    +0.000 A 
ATOM      6  C   UNL     1      -0.960  -0.113  -0.265  0.00  0.00    +0.000 A 
ATOM      7  C   UNL     1      -1.567   0.655   0.716  0.00  0.00    +0.000 A 
ATOM      8  O   UNL     1      -0.923   1.778   1.248  0.00  0.00    +0.000 OA
ATOM      9  C   UNL     1      -2.897   0.903   0.506  0.00  0.00    +0.000 A 
BRANCH   3  10
ATOM     10  O   UNL     1      -4.934  -0.250  -0.094  0.00  0.00    +0.000 OA
BRANCH  10  13
ATOM     11  C   UNL     1      -5.719   1.516   1.196  0.00  0.00    +0.000 C 
ATOM     12  O   UNL     1      -5.597   1.863  -0.301  0.00  0.00    +0.000 OA
ATOM     13  C   UNL     1      -6.144   0.648   0.235  0.00  0.00    +0.000 C 
ATOM     14  C   UNL     1      -7.124   0.113  -1.112  0.00  0.00    +0.000 C 
ATOM     15  O   UNL     1      -5.898  -0.322  -1.939  0.00  0.00    +0.000 OA
ATOM     16  C   UNL     1      -6.856  -0.926   0.250  0.00  0.00    +0.000 C 
ATOM     17  O   UNL     1      -8.299  -1.216   0.381  0.00  0.00    +0.000 OA
ATOM     18  C   UNL     1      -7.027   0.392   1.385  0.00  0.00    +0.000 C 
ATOM     19  O   UNL     1      -6.271  -0.374   2.444  0.00  0.00    +0.000 OA
BRANCH  11  21
ATOM     20  O   UNL     1      -6.432   3.732   0.507  0.00  0.00    +0.000 OA
ATOM     21  C   UNL     1      -6.768   2.775   1.419  0.00  0.00    +0.000 C 
ENDBRANCH  11  21
ENDBRANCH  10  13
ENDBRANCH   3  10
ENDBRANCH   1   6
BRANCH   2  22
ATOM     22  C   UNL     1       1.486  -1.370  -0.932  0.00  0.00    +0.000 A 
ATOM     23  C   UNL     1       1.156  -2.658  -0.659  0.00  0.00    +0.000 A 
ATOM     24  C   UNL     1       1.812  -3.311   0.367  0.00  0.00    +0.000 A 
ATOM     25  O   UNL     1       1.510  -4.668   0.484  0.00  0.00    +0.000 OA
ATOM     26  C   UNL     1       3.070  -2.850   0.739  0.00  0.00    +0.000 A 
ATOM     27  C   UNL     1       3.500  -1.624   0.318  0.00  0.00    +0.000 A 
ATOM     28  C   UNL     1       2.583  -0.815  -0.283  0.00  0.00    +0.000 A 
BRANCH  27  29
ATOM     29  O   UNL     1       4.797  -1.295   0.800  0.00  0.00    +0.000 OA
BRANCH  29  30
ATOM     30  C   UNL     1       5.199  -0.205  -0.165  0.00  0.00    +0.000 C 
ATOM     31  O   UNL     1       4.862   0.976   0.879  0.00  0.00    +0.000 OA
ATOM     32  C   UNL     1       6.269   0.814   1.374  0.00  0.00    +0.000 C 
ATOM     33  C   UNL     1       7.088   2.199   0.707  0.00  0.00    +0.000 C 
ATOM     34  O   UNL     1       5.886   2.973   0.286  0.00  0.00    +0.000 OA
ATOM     35  C   UNL     1       7.370   1.175  -0.672  0.00  0.00    +0.000 C 
ATOM     36  O   UNL     1       8.822   1.040  -0.444  0.00  0.00    +0.000 OA
ATOM     37  C   UNL     1       6.934  -0.350   0.062  0.00  0.00    +0.000 C 
ATOM     38  O   UNL     1       7.165  -1.133  -1.190  0.00  0.00    +0.000 OA
BRANCH  32  39
ATOM     39  C   UNL     1       6.071   0.693  -0.193  0.00  0.00    +0.000 C 
ATOM     40  O   UNL     1       5.440   1.479  -1.043  0.00  0.00    +0.000 OA
ENDBRANCH  32  39
ENDBRANCH  29  30
ENDBRANCH  27  29
ENDBRANCH   2  22
TORSDOF 8
