
     RDKit          3D

 27 28  0  0  0  0  0  0  0  0999 V2000
   -5.7265   -0.6064    2.5727 C   0  0  0  0  0  0  0  0  0  0  0  0
   -6.3083   -0.9529    1.3304 O   0  0  0  0  0  0  0  0  0  0  0  0
   -5.8448   -0.3776    0.1440 C   0  0  0  0  0  0  0  0  0  0  0  0
   -4.8723   -0.9865   -0.6401 C   0  0  0  0  0  0  0  0  0  0  0  0
   -4.1101   -0.2682   -1.5451 C   0  0  0  0  0  0  0  0  0  0  0  0
   -2.6601   -0.4143   -1.6561 C   0  0  0  0  0  0  0  0  0  0  0  0
   -2.0205   -1.5375   -1.4224 C   0  0  0  0  0  0  0  0  0  0  0  0
   -0.7328   -1.5954   -0.7264 C   0  0  0  0  0  0  0  0  0  0  0  0
   -0.7901   -1.8402    0.5115 O   0  0  0  0  0  0  0  0  0  0  0  0
    0.3387   -0.7672   -1.2374 C   0  0  0  0  0  0  0  0  0  0  0  0
    0.6319    0.4397   -0.7964 C   0  0  0  0  0  0  0  0  0  0  0  0
   -0.1086    0.8967    0.2988 O   0  0  0  0  0  0  0  0  0  0  0  0
    1.9727    1.0265   -0.9244 C   0  0  0  0  0  0  0  0  0  0  0  0
    3.0072    0.3699   -1.3947 C   0  0  0  0  0  0  0  0  0  0  0  0
    4.3179    0.3344   -0.7358 C   0  0  0  0  0  0  0  0  0  0  0  0
    5.0745   -0.8042   -0.9849 C   0  0  0  0  0  0  0  0  0  0  0  0
    6.2380   -1.0147   -0.2902 C   0  0  0  0  0  0  0  0  0  0  0  0
    6.4421   -0.4101    0.9320 C   0  0  0  0  0  0  0  0  0  0  0  0
    7.7541   -0.3896    1.3983 O   0  0  0  0  0  0  0  0  0  0  0  0
    5.6072    0.6372    1.2902 C   0  0  0  0  0  0  0  0  0  0  0  0
    5.6221    0.9969    2.6332 O   0  0  0  0  0  0  0  0  0  0  0  0
    5.2121    0.1006    3.6614 C   0  0  0  0  0  0  0  0  0  0  0  0
    4.5893    1.0090    0.4295 C   0  0  0  0  0  0  0  0  0  0  0  0
   -4.6625    0.9300   -1.9797 C   0  0  0  0  0  0  0  0  0  0  0  0
   -5.8395    1.4132   -1.4201 C   0  0  0  0  0  0  0  0  0  0  0  0
   -6.2974    0.8851   -0.2179 C   0  0  0  0  0  0  0  0  0  0  0  0
   -6.8342    1.7149    0.7696 O   0  0  0  0  0  0  0  0  0  0  0  0
  1  2  1  0
  2  3  1  0
  3  4  2  0
  4  5  1  0
  5  6  1  0
  6  7  2  0
  7  8  1  0
  8  9  2  0
  8 10  1  0
 10 11  2  0
 11 12  1  0
 11 13  1  0
 13 14  2  0
 14 15  1  0
 15 16  2  0
 16 17  1  0
 17 18  2  0
 18 19  1  0
 18 20  1  0
 20 21  1  0
 21 22  1  0
 20 23  2  0
  5 24  2  0
 24 25  1  0
 25 26  2  0
 26 27  1  0
 26  3  1  0
 23 15  1  0
M  END
>  <zinc_id>  (1) 
ZINC000100067274

>  <smiles>  (1) 
COc1cc(/C=C/C(=O)/C=C(O)/C=C/c2ccc(O)c(OC)c2)ccc1O

$$$$
