
     RDKit          3D

 27 29  0  0  0  0  0  0  0  0999 V2000
   -7.3836    2.7507   -1.1998 C   0  0  0  0  0  0  0  0  0  0  0  0
   -7.3368    2.0241    0.0173 O   0  0  0  0  0  0  0  0  0  0  0  0
   -6.4107    1.0045    0.1623 C   0  0  0  0  0  0  0  0  0  0  0  0
   -5.3852    0.8698   -0.7648 C   0  0  0  0  0  0  0  0  0  0  0  0
   -4.4032   -0.1055   -0.6416 C   0  0  0  0  0  0  0  0  0  0  0  0
   -3.0471    0.2198   -1.0339 C   0  0  0  0  0  0  0  0  0  0  0  0
   -2.1251   -0.6540   -1.3613 C   0  0  0  0  0  0  0  0  0  0  0  0
   -0.7410   -0.5782   -0.8756 C   0  0  0  0  0  0  0  0  0  0  0  0
    0.0452    0.5262   -0.6522 C   0  0  0  0  0  0  0  0  0  0  0  0
    0.8713    0.3040    0.4430 C   0  0  0  0  0  0  0  0  0  0  0  0
    2.2158    0.8552    0.6615 C   0  0  0  0  0  0  0  0  0  0  0  0
    3.0509    1.1510   -0.3033 C   0  0  0  0  0  0  0  0  0  0  0  0
    4.4086    0.5996   -0.4095 C   0  0  0  0  0  0  0  0  0  0  0  0
    4.6112   -0.2697   -1.4743 C   0  0  0  0  0  0  0  0  0  0  0  0
    5.4786   -1.3516   -1.3853 C   0  0  0  0  0  0  0  0  0  0  0  0
    6.3994   -1.3134   -0.3495 C   0  0  0  0  0  0  0  0  0  0  0  0
    7.2809   -2.3761   -0.2011 O   0  0  0  0  0  0  0  0  0  0  0  0
    6.3993   -0.2446    0.5383 C   0  0  0  0  0  0  0  0  0  0  0  0
    7.5223   -0.0624    1.3509 O   0  0  0  0  0  0  0  0  0  0  0  0
    8.2440    1.1515    1.1792 C   0  0  0  0  0  0  0  0  0  0  0  0
    5.2693    0.5512    0.6783 C   0  0  0  0  0  0  0  0  0  0  0  0
    0.5842   -0.9621    0.8327 N   0  0  0  0  0  0  0  0  0  0  0  0
   -0.2488   -1.5257   -0.0412 N   0  0  0  0  0  0  0  0  0  0  0  0
   -4.7200   -1.1495    0.2187 C   0  0  0  0  0  0  0  0  0  0  0  0
   -5.7780   -1.0673    1.0939 C   0  0  0  0  0  0  0  0  0  0  0  0
   -6.7876   -0.1542    0.8287 C   0  0  0  0  0  0  0  0  0  0  0  0
   -8.0137   -0.1935    1.4781 O   0  0  0  0  0  0  0  0  0  0  0  0
  1  2  1  0
  2  3  1  0
  3  4  2  0
  4  5  1  0
  5  6  1  0
  6  7  2  0
  7  8  1  0
  8  9  1  0
  9 10  2  0
 10 11  1  0
 11 12  2  0
 12 13  1  0
 13 14  2  0
 14 15  1  0
 15 16  2  0
 16 17  1  0
 16 18  1  0
 18 19  1  0
 19 20  1  0
 18 21  2  0
 10 22  1  0
 22 23  1  0
  5 24  2  0
 24 25  1  0
 25 26  2  0
 26 27  1  0
 26  3  1  0
 23  8  2  0
 21 13  1  0
M  END
>  <zinc_id>  (1) 
ZINC000019816066

>  <smiles>  (1) 
COc1cc(/C=C/c2cc(/C=C/c3ccc(O)c(OC)c3)[nH]n2)ccc1O

$$$$
