REMARK  Name = 
REMARK  13 active torsions:
REMARK  status: ('A' for Active; 'I' for Inactive)
REMARK    1  A    between atoms: O_2  and  C_3
REMARK    2  A    between atoms: C_5  and  C_6
REMARK    3  A    between atoms: C_7  and  C_8
REMARK    4  A    between atoms: C_8  and  C_10
REMARK    5  A    between atoms: C_13  and  C_14
REMARK    6  A    between atoms: C_19  and  O_20
REMARK    7  A    between atoms: C_23  and  C_24
REMARK    8  A    between atoms: C_24  and  C_26
REMARK    9  A    between atoms: C_27  and  C_29
REMARK   10  A    between atoms: C_30  and  C_31
REMARK   11  A    between atoms: C_36  and  O_37
REMARK   12  A    between atoms: C_41  and  C_42
REMARK   13  A    between atoms: C_47  and  O_48
REMARK                            x       y       z     vdW  Elec       q    Type
REMARK                         _______ _______ _______ _____ _____    ______ ____
ROOT
ATOM     10  C   UNL     1      -2.573   1.072  -0.486  0.00  0.00    +0.000 C 
ATOM     11  C   UNL     1      -1.409   0.465  -0.237  0.00  0.00    +0.000 C 
ATOM     12  O   UNL     1      -1.153  -0.328   0.904  0.00  0.00    +0.000 OA
ATOM     13  C   UNL     1      -0.482  -1.573   0.280  0.00  0.00    +0.000 C 
ATOM     23  C   UNL     1       0.611  -0.475  -0.444  0.00  0.00    +0.000 C 
ATOM     40  C   UNL     1      -0.621  -0.058  -1.379  0.00  0.00    +0.000 C 
ATOM     41  C   UNL     1      -0.966  -0.688  -2.468  0.00  0.00    +0.000 C 
ENDROOT
BRANCH  13  14
ATOM     14  C   UNL     1       0.442  -1.925   1.552  0.00  0.00    +0.000 A 
ATOM     15  C   UNL     1       0.829  -3.253   1.332  0.00  0.00    +0.000 A 
ATOM     16  C   UNL     1       1.209  -4.094   2.342  0.00  0.00    +0.000 A 
ATOM     17  C   UNL     1       0.526  -3.942   3.532  0.00  0.00    +0.000 A 
ATOM     18  O   UNL     1       0.502  -4.930   4.515  0.00  0.00    +0.000 OA
ATOM     19  C   UNL     1      -0.190  -2.784   3.749  0.00  0.00    +0.000 A 
ATOM     22  C   UNL     1      -0.157  -1.774   2.796  0.00  0.00    +0.000 A 
BRANCH  19  20
ATOM     20  O   UNL     1      -0.685  -2.507   5.027  0.00  0.00    +0.000 OA
ATOM     21  C   UNL     1      -1.951  -1.855   5.041  0.00  0.00    +0.000 C 
ENDBRANCH  19  20
ENDBRANCH  13  14
BRANCH  41  42
ATOM     42  C   UNL     1      -0.844  -2.143  -2.674  0.00  0.00    +0.000 A 
ATOM     43  C   UNL     1      -2.077  -2.743  -2.358  0.00  0.00    +0.000 A 
ATOM     44  C   UNL     1      -2.388  -4.035  -2.669  0.00  0.00    +0.000 A 
ATOM     45  C   UNL     1      -1.485  -4.761  -3.441  0.00  0.00    +0.000 A 
ATOM     46  O   UNL     1      -1.546  -6.142  -3.247  0.00  0.00    +0.000 OA
ATOM     47  C   UNL     1      -0.314  -4.121  -3.836  0.00  0.00    +0.000 A 
ATOM     50  C   UNL     1      -0.404  -2.733  -3.863  0.00  0.00    +0.000 A 
BRANCH  47  48
ATOM     48  O   UNL     1       0.826  -4.851  -4.124  0.00  0.00    +0.000 OA
ATOM     49  C   UNL     1       0.945  -6.155  -3.551  0.00  0.00    +0.000 C 
ENDBRANCH  47  48
ENDBRANCH  41  42
BRANCH  10   8
ATOM      8  C   UNL     1      -3.243   1.744   0.634  0.00  0.00    +0.000 C 
ATOM      9  O   UNL     1      -2.492   2.388   1.431  0.00  0.00    +0.000 OA
BRANCH   8   7
ATOM      6  C   UNL     1      -5.522   2.434   1.066  0.00  0.00    +0.000 C 
ATOM      7  C   UNL     1      -4.471   2.461   0.257  0.00  0.00    +0.000 C 
BRANCH   6   5
ATOM      3  C   UNL     1      -7.527   5.162  -0.529  0.00  0.00    +0.000 A 
ATOM      4  C   UNL     1      -6.980   3.903  -0.319  0.00  0.00    +0.000 A 
ATOM      5  C   UNL     1      -6.533   3.489   0.914  0.00  0.00    +0.000 A 
ATOM     51  C   UNL     1      -6.864   4.282   2.006  0.00  0.00    +0.000 A 
ATOM     52  C   UNL     1      -7.324   5.556   1.854  0.00  0.00    +0.000 A 
ATOM     53  C   UNL     1      -7.745   5.925   0.589  0.00  0.00    +0.000 A 
ATOM     54  O   UNL     1      -8.530   7.058   0.434  0.00  0.00    +0.000 OA
BRANCH   3   2
ATOM      1  C   UNL     1      -6.736   5.275  -2.856  0.00  0.00    +0.000 C 
ATOM      2  O   UNL     1      -7.273   5.869  -1.713  0.00  0.00    +0.000 OA
ENDBRANCH   3   2
ENDBRANCH   6   5
ENDBRANCH   8   7
ENDBRANCH  10   8
BRANCH  23  24
ATOM     24  C   UNL     1       1.378  -1.453  -1.449  0.00  0.00    +0.000 C 
ATOM     25  O   UNL     1       1.737  -0.600  -2.348  0.00  0.00    +0.000 OA
BRANCH  24  26
ATOM     26  C   UNL     1       2.669  -1.853  -0.829  0.00  0.00    +0.000 C 
ATOM     27  C   UNL     1       3.509  -0.979  -0.309  0.00  0.00    +0.000 C 
ATOM     28  O   UNL     1       2.926   0.250   0.018  0.00  0.00    +0.000 OA
BRANCH  27  29
ATOM     29  C   UNL     1       4.947  -1.232  -0.131  0.00  0.00    +0.000 C 
ATOM     30  C   UNL     1       5.681  -0.625   0.749  0.00  0.00    +0.000 C 
BRANCH  30  31
ATOM     31  C   UNL     1       6.974   0.024   0.490  0.00  0.00    +0.000 A 
ATOM     32  C   UNL     1       7.456   0.168  -0.807  0.00  0.00    +0.000 A 
ATOM     33  C   UNL     1       8.237   1.246  -1.200  0.00  0.00    +0.000 A 
ATOM     34  C   UNL     1       8.280   2.319  -0.317  0.00  0.00    +0.000 A 
ATOM     35  O   UNL     1       8.177   3.646  -0.707  0.00  0.00    +0.000 OA
ATOM     36  C   UNL     1       8.126   2.057   1.042  0.00  0.00    +0.000 A 
ATOM     39  C   UNL     1       7.385   0.949   1.443  0.00  0.00    +0.000 A 
BRANCH  36  37
ATOM     37  O   UNL     1       8.858   2.837   1.903  0.00  0.00    +0.000 OA
ATOM     38  C   UNL     1       8.254   4.034   2.389  0.00  0.00    +0.000 C 
ENDBRANCH  36  37
ENDBRANCH  30  31
ENDBRANCH  27  29
ENDBRANCH  24  26
ENDBRANCH  23  24
TORSDOF 13
