REMARK  Name = 
REMARK  14 active torsions:
REMARK  status: ('A' for Active; 'I' for Inactive)
REMARK    1  A    between atoms: O_2  and  C_3
REMARK    2  A    between atoms: C_5  and  C_6
REMARK    3  A    between atoms: C_7  and  C_8
REMARK    4  A    between atoms: C_8  and  C_10
REMARK    5  A    between atoms: C_11  and  C_12
REMARK    6  A    between atoms: C_13  and  C_14
REMARK    7  A    between atoms: C_19  and  O_20
REMARK    8  A    between atoms: C_24  and  C_25
REMARK    9  A    between atoms: C_30  and  O_31
REMARK   10  A    between atoms: C_34  and  C_35
REMARK   11  A    between atoms: C_35  and  C_37
REMARK   12  A    between atoms: C_38  and  C_40
REMARK   13  A    between atoms: C_41  and  C_42
REMARK   14  A    between atoms: C_47  and  O_48
REMARK                            x       y       z     vdW  Elec       q    Type
REMARK                         _______ _______ _______ _____ _____    ______ ____
ROOT
ATOM     10  C   UNL     1      -0.885  -0.254   0.118  0.00  0.00    +0.000 C 
ATOM     11  C   UNL     1      -1.303   0.970   0.229  0.00  0.00    +0.000 C 
ATOM     23  O   UNL     1      -0.869   1.586   1.391  0.00  0.00    +0.000 OA
ATOM     24  C   UNL     1      -1.263   0.457   2.366  0.00  0.00    +0.000 C 
ATOM     34  C   UNL     1      -0.234  -0.659   1.526  0.00  0.00    +0.000 C 
ENDROOT
BRANCH  24  25
ATOM     25  C   UNL     1      -0.178   0.800   3.523  0.00  0.00    +0.000 A 
ATOM     26  C   UNL     1       0.507   1.979   3.429  0.00  0.00    +0.000 A 
ATOM     27  C   UNL     1       1.230   2.386   4.536  0.00  0.00    +0.000 A 
ATOM     28  C   UNL     1       0.586   2.222   5.755  0.00  0.00    +0.000 A 
ATOM     29  O   UNL     1       1.061   2.829   6.912  0.00  0.00    +0.000 OA
ATOM     30  C   UNL     1      -0.640   1.568   5.798  0.00  0.00    +0.000 A 
ATOM     33  C   UNL     1      -0.862   0.694   4.740  0.00  0.00    +0.000 A 
BRANCH  30  31
ATOM     31  O   UNL     1      -1.599   1.877   6.767  0.00  0.00    +0.000 OA
ATOM     32  C   UNL     1      -2.290   3.117   6.620  0.00  0.00    +0.000 C 
ENDBRANCH  30  31
ENDBRANCH  24  25
BRANCH  10   8
ATOM      8  C   UNL     1      -1.451  -1.243  -0.778  0.00  0.00    +0.000 C 
ATOM      9  O   UNL     1      -0.703  -1.774  -1.640  0.00  0.00    +0.000 OA
BRANCH   8   7
ATOM      6  C   UNL     1      -2.974  -2.497   0.665  0.00  0.00    +0.000 C 
ATOM      7  C   UNL     1      -2.707  -1.901  -0.472  0.00  0.00    +0.000 C 
BRANCH   6   5
ATOM      3  C   UNL     1      -4.187  -5.739  -0.634  0.00  0.00    +0.000 A 
ATOM      4  C   UNL     1      -3.363  -4.890   0.069  0.00  0.00    +0.000 A 
ATOM      5  C   UNL     1      -3.811  -3.703   0.631  0.00  0.00    +0.000 A 
ATOM     51  C   UNL     1      -5.191  -3.561   0.697  0.00  0.00    +0.000 A 
ATOM     52  C   UNL     1      -6.031  -4.428   0.015  0.00  0.00    +0.000 A 
ATOM     53  C   UNL     1      -5.531  -5.452  -0.756  0.00  0.00    +0.000 A 
ATOM     54  O   UNL     1      -6.223  -5.836  -1.889  0.00  0.00    +0.000 OA
BRANCH   3   2
ATOM      1  C   UNL     1      -3.352  -6.598  -2.510  0.00  0.00    +0.000 C 
ATOM      2  O   UNL     1      -3.625  -6.678  -1.488  0.00  0.00    +0.000 OA
ENDBRANCH   3   2
ENDBRANCH   6   5
ENDBRANCH   8   7
ENDBRANCH  10   8
BRANCH  11  12
ATOM     12  C   UNL     1      -1.628   1.780  -0.957  0.00  0.00    +0.000 C 
ATOM     13  C   UNL     1      -2.473   2.790  -0.791  0.00  0.00    +0.000 C 
BRANCH  13  14
ATOM     14  C   UNL     1      -2.948   3.645  -1.849  0.00  0.00    +0.000 A 
ATOM     15  C   UNL     1      -4.118   3.266  -2.485  0.00  0.00    +0.000 A 
ATOM     16  C   UNL     1      -4.500   3.950  -3.631  0.00  0.00    +0.000 A 
ATOM     17  C   UNL     1      -3.611   4.851  -4.179  0.00  0.00    +0.000 A 
ATOM     18  O   UNL     1      -3.777   5.243  -5.493  0.00  0.00    +0.000 OA
ATOM     19  C   UNL     1      -2.457   5.226  -3.515  0.00  0.00    +0.000 A 
ATOM     22  C   UNL     1      -2.240   4.744  -2.249  0.00  0.00    +0.000 A 
BRANCH  19  20
ATOM     20  O   UNL     1      -1.640   6.252  -3.972  0.00  0.00    +0.000 OA
ATOM     21  C   UNL     1      -0.392   5.928  -4.533  0.00  0.00    +0.000 C 
ENDBRANCH  19  20
ENDBRANCH  13  14
ENDBRANCH  11  12
BRANCH  34  35
ATOM     35  C   UNL     1       1.037   0.312   1.423  0.00  0.00    +0.000 C 
ATOM     36  O   UNL     1       1.196   1.049   0.452  0.00  0.00    +0.000 OA
BRANCH  35  37
ATOM     37  C   UNL     1       2.272  -0.412   1.786  0.00  0.00    +0.000 C 
ATOM     38  C   UNL     1       2.638  -1.399   0.966  0.00  0.00    +0.000 C 
ATOM     39  O   UNL     1       1.631  -2.349   0.771  0.00  0.00    +0.000 OA
BRANCH  38  40
ATOM     40  C   UNL     1       4.043  -1.680   0.636  0.00  0.00    +0.000 C 
ATOM     41  C   UNL     1       4.648  -0.861  -0.209  0.00  0.00    +0.000 C 
BRANCH  41  42
ATOM     42  C   UNL     1       5.798  -1.219  -1.024  0.00  0.00    +0.000 A 
ATOM     43  C   UNL     1       5.520  -1.594  -2.334  0.00  0.00    +0.000 A 
ATOM     44  C   UNL     1       6.600  -1.845  -3.156  0.00  0.00    +0.000 A 
ATOM     45  C   UNL     1       7.891  -1.498  -2.776  0.00  0.00    +0.000 A 
ATOM     46  O   UNL     1       9.008  -1.782  -3.533  0.00  0.00    +0.000 OA
ATOM     47  C   UNL     1       8.027  -0.640  -1.693  0.00  0.00    +0.000 A 
ATOM     50  C   UNL     1       6.909  -0.389  -0.907  0.00  0.00    +0.000 A 
BRANCH  47  48
ATOM     48  O   UNL     1       9.178   0.130  -1.631  0.00  0.00    +0.000 OA
ATOM     49  C   UNL     1       9.277   1.229  -0.734  0.00  0.00    +0.000 C 
ENDBRANCH  47  48
ENDBRANCH  41  42
ENDBRANCH  38  40
ENDBRANCH  35  37
ENDBRANCH  34  35
TORSDOF 14
