
     RDKit          3D

 54 58  0  0  0  0  0  0  0  0999 V2000
   -6.1749    6.2534    2.2169 C   0  0  0  0  0  0  0  0  0  0  0  0
   -5.7558    6.2306    1.6344 O   0  0  0  0  0  0  0  0  0  0  0  0
   -4.9372    5.7772    0.5980 C   0  0  0  0  0  0  0  0  0  0  0  0
   -4.7669    4.4098    0.4209 C   0  0  0  0  0  0  0  0  0  0  0  0
   -3.6242    4.0222   -0.2519 C   0  0  0  0  0  0  0  0  0  0  0  0
   -3.0774    2.6707   -0.0702 C   0  0  0  0  0  0  0  0  0  0  0  0
   -2.3533    2.3091    0.9578 C   0  0  0  0  0  0  0  0  0  0  0  0
   -1.0136    1.7161    0.8588 C   0  0  0  0  0  0  0  0  0  0  0  0
   -0.1150    2.4234    1.4097 O   0  0  0  0  0  0  0  0  0  0  0  0
   -0.6682    0.8486   -0.2645 C   0  0  0  0  0  0  0  0  0  0  0  0
   -1.3481   -0.2351   -0.6511 C   0  0  0  0  0  0  0  0  0  0  0  0
   -2.7145   -0.6248   -0.2663 C   0  0  0  0  0  0  0  0  0  0  0  0
   -3.4001   -1.5187   -0.9130 C   0  0  0  0  0  0  0  0  0  0  0  0
   -3.9665   -2.7412   -0.3807 C   0  0  0  0  0  0  0  0  0  0  0  0
   -3.3527   -3.9240   -0.7746 C   0  0  0  0  0  0  0  0  0  0  0  0
   -3.7165   -5.1497   -0.2372 C   0  0  0  0  0  0  0  0  0  0  0  0
   -4.7695   -5.2143    0.6591 C   0  0  0  0  0  0  0  0  0  0  0  0
   -5.3488   -6.4362    1.0028 O   0  0  0  0  0  0  0  0  0  0  0  0
   -5.3141   -4.0212    1.1239 C   0  0  0  0  0  0  0  0  0  0  0  0
   -6.2198   -4.0864    2.1854 O   0  0  0  0  0  0  0  0  0  0  0  0
   -7.3985   -3.3007    2.2299 C   0  0  0  0  0  0  0  0  0  0  0  0
   -4.9009   -2.8045    0.6135 C   0  0  0  0  0  0  0  0  0  0  0  0
   -0.8060   -0.3810   -1.8758 O   0  0  0  0  0  0  0  0  0  0  0  0
    0.7305   -0.5165   -1.6903 C   0  0  2  0  0  0  0  0  0  0  0  0
    0.5629   -2.0913   -1.2828 C   0  0  0  0  0  0  0  0  0  0  0  0
    1.5362   -2.5981   -0.4838 C   0  0  0  0  0  0  0  0  0  0  0  0
    1.3770   -3.9416   -0.1520 C   0  0  0  0  0  0  0  0  0  0  0  0
    0.3639   -4.7160   -0.7093 C   0  0  0  0  0  0  0  0  0  0  0  0
   -0.2946   -5.7042    0.0354 O   0  0  0  0  0  0  0  0  0  0  0  0
   -0.1915   -4.2114   -1.8818 C   0  0  0  0  0  0  0  0  0  0  0  0
   -0.9179   -5.0935   -2.6569 O   0  0  0  0  0  0  0  0  0  0  0  0
   -2.3139   -5.0848   -2.7859 C   0  0  0  0  0  0  0  0  0  0  0  0
    0.0009   -2.8786   -2.2398 C   0  0  0  0  0  0  0  0  0  0  0  0
    0.6661   -0.0285   -0.0122 C   0  0  1  0  0  0  0  0  0  0  0  0
    1.6440    1.2361   -0.2397 C   0  0  0  0  0  0  0  0  0  0  0  0
    1.4493    1.9263   -1.2403 O   0  0  0  0  0  0  0  0  0  0  0  0
    2.9377    1.1521    0.4042 C   0  0  0  0  0  0  0  0  0  0  0  0
    3.2339    0.3639    1.4097 C   0  0  0  0  0  0  0  0  0  0  0  0
    2.1574   -0.1413    2.1459 O   0  0  0  0  0  0  0  0  0  0  0  0
    4.5779   -0.2087    1.5689 C   0  0  0  0  0  0  0  0  0  0  0  0
    5.6307    0.4848    1.9258 C   0  0  0  0  0  0  0  0  0  0  0  0
    6.9130    0.4770    1.2600 C   0  0  0  0  0  0  0  0  0  0  0  0
    7.9875   -0.3005    1.6009 C   0  0  0  0  0  0  0  0  0  0  0  0
    9.2504    0.0265    1.1397 C   0  0  0  0  0  0  0  0  0  0  0  0
    9.4281    0.9741    0.1731 C   0  0  0  0  0  0  0  0  0  0  0  0
   10.6603    1.5205   -0.1680 O   0  0  0  0  0  0  0  0  0  0  0  0
    8.3095    1.5436   -0.3886 C   0  0  0  0  0  0  0  0  0  0  0  0
    8.3353    2.2222   -1.6022 O   0  0  0  0  0  0  0  0  0  0  0  0
    9.3441    2.0456   -2.5579 C   0  0  0  0  0  0  0  0  0  0  0  0
    7.0878    1.3409    0.1908 C   0  0  0  0  0  0  0  0  0  0  0  0
   -2.9703    4.9434   -1.0514 C   0  0  0  0  0  0  0  0  0  0  0  0
   -3.0227    6.2896   -0.7528 C   0  0  0  0  0  0  0  0  0  0  0  0
   -4.1501    6.7108   -0.0580 C   0  0  0  0  0  0  0  0  0  0  0  0
   -4.5807    8.0342   -0.1263 O   0  0  0  0  0  0  0  0  0  0  0  0
  1  2  1  0
  2  3  1  0
  3  4  2  0
  4  5  1  0
  5  6  1  0
  6  7  2  0
  7  8  1  0
  8  9  2  0
  8 10  1  0
 10 11  2  0
 11 12  1  0
 12 13  2  0
 13 14  1  0
 14 15  2  0
 15 16  1  0
 16 17  2  0
 17 18  1  0
 17 19  1  0
 19 20  1  0
 20 21  1  0
 19 22  2  0
 11 23  1  0
 23 24  1  0
 24 25  1  1
 25 26  2  0
 26 27  1  0
 27 28  2  0
 28 29  1  0
 28 30  1  0
 30 31  1  0
 31 32  1  0
 30 33  2  0
 24 34  1  0
 34 35  1  6
 35 36  2  0
 35 37  1  0
 37 38  2  0
 38 39  1  0
 38 40  1  0
 40 41  2  0
 41 42  1  0
 42 43  2  0
 43 44  1  0
 44 45  2  0
 45 46  1  0
 45 47  1  0
 47 48  1  0
 48 49  1  0
 47 50  2  0
  5 51  2  0
 51 52  1  0
 52 53  2  0
 53 54  1  0
 53  3  1  0
 34 10  1  0
 50 42  1  0
 22 14  1  0
 33 25  1  0
M  END
>  <zinc_id>  (1) 
ZINC000150366582

>  <smiles>  (1) 
COc1cc(/C=C/C(=O)C2=C(/C=C/c3ccc(O)c(OC)c3)O[C@H](c3ccc(O)c(OC)c3)[C@H]2C(=O)/C=C(O)/C=C/c2ccc(O)c(OC)c2)ccc1O

$$$$
