
     RDKit          3D

 54 58  0  0  0  0  0  0  0  0999 V2000
    1.7871   -4.5083    1.3094 C   0  0  0  0  0  0  0  0  0  0  0  0
    1.3570   -3.2581    1.7326 O   0  0  0  0  0  0  0  0  0  0  0  0
    0.7173   -2.4504    0.7912 C   0  0  0  0  0  0  0  0  0  0  0  0
    1.2581   -2.3577   -0.4865 C   0  0  0  0  0  0  0  0  0  0  0  0
    0.8873   -1.2634   -1.2607 C   0  0  0  0  0  0  0  0  0  0  0  0
    1.8737   -0.4388   -1.9710 C   0  0  0  0  0  0  0  0  0  0  0  0
    2.6061    0.4876   -1.3532 C   0  0  0  0  0  0  0  0  0  0  0  0
    4.0507    0.5556   -1.4120 C   0  0  0  0  0  0  0  0  0  0  0  0
    4.5526    1.2776   -2.3142 O   0  0  0  0  0  0  0  0  0  0  0  0
    4.9378   -0.2766   -0.5908 C   0  0  0  0  0  0  0  0  0  0  0  0
    5.4140    0.1018    0.5772 C   0  0  0  0  0  0  0  0  0  0  0  0
    4.5711    0.9522    1.3052 O   0  0  0  0  0  0  0  0  0  0  0  0
    6.7934    0.0791    0.9815 C   0  0  0  0  0  0  0  0  0  0  0  0
    7.7492   -0.6956    0.5518 C   0  0  0  0  0  0  0  0  0  0  0  0
    9.0203   -0.1686    0.0303 C   0  0  0  0  0  0  0  0  0  0  0  0
    9.1754    0.0280   -1.3371 C   0  0  0  0  0  0  0  0  0  0  0  0
    9.7124    1.1751   -1.8778 C   0  0  0  0  0  0  0  0  0  0  0  0
   10.3993    2.0145   -1.0065 C   0  0  0  0  0  0  0  0  0  0  0  0
   10.4896    3.3889   -1.2573 O   0  0  0  0  0  0  0  0  0  0  0  0
   10.5919    1.6515    0.3237 C   0  0  0  0  0  0  0  0  0  0  0  0
   11.8031    2.0691    0.8735 O   0  0  0  0  0  0  0  0  0  0  0  0
   11.9781    2.5484    2.1694 C   0  0  0  0  0  0  0  0  0  0  0  0
    9.8849    0.5668    0.8318 C   0  0  0  0  0  0  0  0  0  0  0  0
   -0.4295   -0.8689   -1.0699 C   0  0  0  0  0  0  0  0  0  0  0  0
   -1.2035   -1.4013   -0.0739 C   0  0  0  0  0  0  0  0  0  0  0  0
   -0.5545   -1.9260    1.0075 C   0  0  0  0  0  0  0  0  0  0  0  0
   -1.3460   -2.1778    2.0746 O   0  0  0  0  0  0  0  0  0  0  0  0
   -2.7981   -1.8276    1.6604 C   0  0  2  0  0  0  0  0  0  0  0  0
   -2.8635   -2.8427    0.3785 C   0  0  0  0  0  0  0  0  0  0  0  0
   -4.2195   -3.0759    0.1388 C   0  0  0  0  0  0  0  0  0  0  0  0
   -4.7493   -4.3532    0.0002 C   0  0  0  0  0  0  0  0  0  0  0  0
   -3.8895   -5.4245   -0.0946 C   0  0  0  0  0  0  0  0  0  0  0  0
   -4.2862   -6.7459    0.1329 O   0  0  0  0  0  0  0  0  0  0  0  0
   -2.5249   -5.1652   -0.1191 C   0  0  0  0  0  0  0  0  0  0  0  0
   -1.7142   -6.0105   -0.8278 O   0  0  0  0  0  0  0  0  0  0  0  0
   -0.3491   -5.8184   -1.0824 C   0  0  0  0  0  0  0  0  0  0  0  0
   -2.1441   -4.0104    0.5106 C   0  0  0  0  0  0  0  0  0  0  0  0
   -2.2230   -0.4613    0.7422 C   0  0  2  0  0  0  0  0  0  0  0  0
   -3.4008   -0.5705   -0.3525 C   0  0  0  0  0  0  0  0  0  0  0  0
   -3.0365   -0.2778   -1.5344 O   0  0  0  0  0  0  0  0  0  0  0  0
   -4.5171    0.2726    0.1181 C   0  0  0  0  0  0  0  0  0  0  0  0
   -4.4078    1.5804   -0.0696 C   0  0  0  0  0  0  0  0  0  0  0  0
   -3.3642    2.0291   -0.8869 O   0  0  0  0  0  0  0  0  0  0  0  0
   -5.2905    2.5823    0.4661 C   0  0  0  0  0  0  0  0  0  0  0  0
   -6.4227    2.3808    1.0931 C   0  0  0  0  0  0  0  0  0  0  0  0
   -7.6399    3.1270    0.7709 C   0  0  0  0  0  0  0  0  0  0  0  0
   -8.6244    2.5302   -0.0069 C   0  0  0  0  0  0  0  0  0  0  0  0
   -9.3104    3.3064   -0.9330 C   0  0  0  0  0  0  0  0  0  0  0  0
   -9.1214    4.6749   -1.0373 C   0  0  0  0  0  0  0  0  0  0  0  0
   -9.2408    5.2849   -2.2774 O   0  0  0  0  0  0  0  0  0  0  0  0
   -8.4278    5.2671    0.0055 C   0  0  0  0  0  0  0  0  0  0  0  0
   -8.3617    6.6628    0.0197 O   0  0  0  0  0  0  0  0  0  0  0  0
   -7.3756    7.2916    0.7914 C   0  0  0  0  0  0  0  0  0  0  0  0
   -7.7735    4.4889    0.9544 C   0  0  0  0  0  0  0  0  0  0  0  0
  1  2  1  0
  2  3  1  0
  3  4  2  0
  4  5  1  0
  5  6  1  0
  6  7  2  0
  7  8  1  0
  8  9  2  0
  8 10  1  0
 10 11  2  0
 11 12  1  0
 11 13  1  0
 13 14  2  0
 14 15  1  0
 15 16  2  0
 16 17  1  0
 17 18  2  0
 18 19  1  0
 18 20  1  0
 20 21  1  0
 21 22  1  0
 20 23  2  0
  5 24  2  0
 24 25  1  0
 25 26  2  0
 26 27  1  0
 27 28  1  0
 28 29  1  6
 29 30  2  0
 30 31  1  0
 31 32  2  0
 32 33  1  0
 32 34  1  0
 34 35  1  0
 35 36  1  0
 34 37  2  0
 28 38  1  0
 38 39  1  6
 39 40  2  0
 39 41  1  0
 41 42  2  0
 42 43  1  0
 42 44  1  0
 44 45  2  0
 45 46  1  0
 46 47  2  0
 47 48  1  0
 48 49  2  0
 49 50  1  0
 49 51  1  0
 51 52  1  0
 52 53  1  0
 51 54  2  0
 26  3  1  0
 37 29  1  0
 54 46  1  0
 23 15  1  0
 38 25  1  0
M  END
>  <zinc_id>  (1) 
ZINC000150368101

>  <smiles>  (1) 
COc1cc(/C=C/C(O)=C/C(=O)/C=C/c2cc(OC)c3c(c2)[C@@H](C(=O)/C=C(O)/C=C/c2ccc(O)c(OC)c2)[C@@H](c2ccc(O)c(OC)c2)O3)ccc1O

$$$$
