
     RDKit          3D

 54 58  0  0  0  0  0  0  0  0999 V2000
   -8.5499    0.9870    0.8732 C   0  0  0  0  0  0  0  0  0  0  0  0
   -8.6715    1.8879    0.6473 O   0  0  0  0  0  0  0  0  0  0  0  0
   -7.8773    2.9592    0.2685 C   0  0  0  0  0  0  0  0  0  0  0  0
   -6.9618    3.5733    1.0902 C   0  0  0  0  0  0  0  0  0  0  0  0
   -5.8766    4.3004    0.6117 C   0  0  0  0  0  0  0  0  0  0  0  0
   -4.6197    4.1642    1.3001 C   0  0  0  0  0  0  0  0  0  0  0  0
   -3.5155    3.6556    1.0008 C   0  0  0  0  0  0  0  0  0  0  0  0
   -2.9015    2.3784    1.1376 C   0  0  0  0  0  0  0  0  0  0  0  0
   -3.1857    1.5679    2.0612 O   0  0  0  0  0  0  0  0  0  0  0  0
   -2.4608    1.7967   -0.1379 C   0  0  0  0  0  0  0  0  0  0  0  0
   -1.4808    0.8945   -0.1916 C   0  0  0  0  0  0  0  0  0  0  0  0
   -0.6224    0.5348    0.8553 O   0  0  0  0  0  0  0  0  0  0  0  0
   -0.5236   -0.9799    0.6457 C   0  0  2  0  0  0  0  0  0  0  0  0
    0.9864   -1.0819    1.1912 C   0  0  0  0  0  0  0  0  0  0  0  0
    1.1561   -0.5984    2.4800 C   0  0  0  0  0  0  0  0  0  0  0  0
    1.8674   -1.3002    3.4448 C   0  0  0  0  0  0  0  0  0  0  0  0
    2.1620   -2.6414    3.2452 C   0  0  0  0  0  0  0  0  0  0  0  0
    2.0331   -3.5754    4.2799 O   0  0  0  0  0  0  0  0  0  0  0  0
    2.2655   -3.0282    1.9142 C   0  0  0  0  0  0  0  0  0  0  0  0
    2.6084   -4.3731    1.7276 O   0  0  0  0  0  0  0  0  0  0  0  0
    1.6010   -5.1695    1.1060 C   0  0  0  0  0  0  0  0  0  0  0  0
    1.4670   -2.3715    0.9906 C   0  0  0  0  0  0  0  0  0  0  0  0
   -0.0187   -0.8108   -0.9871 C   0  0  2  0  0  0  0  0  0  0  0  0
    0.8530    0.5168   -0.8081 C   0  0  0  0  0  0  0  0  0  0  0  0
    0.6097    1.4674   -1.6127 O   0  0  0  0  0  0  0  0  0  0  0  0
    2.3047    0.3258   -0.6607 C   0  0  0  0  0  0  0  0  0  0  0  0
    3.0938    0.2162   -1.7313 C   0  0  0  0  0  0  0  0  0  0  0  0
    2.5478   -0.5994   -2.7292 O   0  0  0  0  0  0  0  0  0  0  0  0
    4.5199    0.0236   -1.4566 C   0  0  0  0  0  0  0  0  0  0  0  0
    5.4180    0.9775   -1.5181 C   0  0  0  0  0  0  0  0  0  0  0  0
    6.3973    1.2628   -0.4800 C   0  0  0  0  0  0  0  0  0  0  0  0
    6.3719    2.5079    0.1365 C   0  0  0  0  0  0  0  0  0  0  0  0
    7.5319    3.1050    0.6008 C   0  0  0  0  0  0  0  0  0  0  0  0
    8.7208    2.4038    0.6040 C   0  0  0  0  0  0  0  0  0  0  0  0
    9.9545    3.0567    0.5687 O   0  0  0  0  0  0  0  0  0  0  0  0
    8.6718    1.0557    0.2905 C   0  0  0  0  0  0  0  0  0  0  0  0
    9.8140    0.3196    0.5657 O   0  0  0  0  0  0  0  0  0  0  0  0
   11.0370    0.7748   -0.0086 C   0  0  0  0  0  0  0  0  0  0  0  0
    7.5321    0.5113   -0.2679 C   0  0  0  0  0  0  0  0  0  0  0  0
   -1.3909   -0.0509   -1.2852 C   0  0  0  0  0  0  0  0  0  0  0  0
   -2.3279   -0.6178   -2.0298 C   0  0  0  0  0  0  0  0  0  0  0  0
   -2.5292   -2.0779   -2.0726 C   0  0  0  0  0  0  0  0  0  0  0  0
   -3.8114   -2.4911   -1.7201 C   0  0  0  0  0  0  0  0  0  0  0  0
   -4.0191   -3.6512   -0.9823 C   0  0  0  0  0  0  0  0  0  0  0  0
   -2.9426   -4.3508   -0.4511 C   0  0  0  0  0  0  0  0  0  0  0  0
   -3.1351   -5.4269    0.4180 O   0  0  0  0  0  0  0  0  0  0  0  0
   -1.7307   -4.1660   -1.1045 C   0  0  0  0  0  0  0  0  0  0  0  0
   -0.6018   -4.6652   -0.4454 O   0  0  0  0  0  0  0  0  0  0  0  0
   -0.6268   -5.2100    0.8456 C   0  0  0  0  0  0  0  0  0  0  0  0
   -1.5315   -2.9743   -1.7912 C   0  0  0  0  0  0  0  0  0  0  0  0
   -6.0034    4.7410   -0.7002 C   0  0  0  0  0  0  0  0  0  0  0  0
   -7.0635    4.3267   -1.4965 C   0  0  0  0  0  0  0  0  0  0  0  0
   -7.8929    3.2972   -1.0742 C   0  0  0  0  0  0  0  0  0  0  0  0
   -8.6525    2.6223   -2.0044 O   0  0  0  0  0  0  0  0  0  0  0  0
  1  2  1  0
  2  3  1  0
  3  4  2  0
  4  5  1  0
  5  6  1  0
  6  7  2  0
  7  8  1  0
  8  9  2  0
  8 10  1  0
 10 11  2  0
 11 12  1  0
 12 13  1  0
 13 14  1  1
 14 15  2  0
 15 16  1  0
 16 17  2  0
 17 18  1  0
 17 19  1  0
 19 20  1  0
 20 21  1  0
 19 22  2  0
 13 23  1  0
 23 24  1  1
 24 25  2  0
 24 26  1  0
 26 27  2  0
 27 28  1  0
 27 29  1  0
 29 30  2  0
 30 31  1  0
 31 32  2  0
 32 33  1  0
 33 34  2  0
 34 35  1  0
 34 36  1  0
 36 37  1  0
 37 38  1  0
 36 39  2  0
 23 40  1  0
 40 41  2  0
 41 42  1  0
 42 43  2  0
 43 44  1  0
 44 45  2  0
 45 46  1  0
 45 47  1  0
 47 48  1  0
 48 49  1  0
 47 50  2  0
  5 51  2  0
 51 52  1  0
 52 53  2  0
 53 54  1  0
 53  3  1  0
 40 11  1  0
 50 42  1  0
 22 14  1  0
 39 31  1  0
M  END
>  <zinc_id>  (1) 
ZINC000150368142

>  <smiles>  (1) 
COc1cc(/C=C/C(=O)/C=C2\O[C@H](c3ccc(O)c(OC)c3)[C@H](C(=O)/C=C(O)/C=C/c3ccc(O)c(OC)c3)\C2=C/c2ccc(O)c(OC)c2)ccc1O

$$$$
