
     RDKit          3D

 29 30  0  0  0  0  0  0  0  0999 V2000
   -8.4634    0.6121    0.6848 C   0  0  0  0  0  0  0  0  0  0  0  0
   -7.8063   -0.4275    0.0032 O   0  0  0  0  0  0  0  0  0  0  0  0
   -6.5015   -0.1904   -0.4336 C   0  0  0  0  0  0  0  0  0  0  0  0
   -5.5579   -1.1633   -0.1669 C   0  0  0  0  0  0  0  0  0  0  0  0
   -4.3923   -1.1289   -0.9226 C   0  0  0  0  0  0  0  0  0  0  0  0
   -3.4346   -2.2515   -0.6748 C   0  0  0  0  0  0  0  0  0  0  0  0
   -2.1447   -1.7785   -0.1393 C   0  0  0  0  0  0  0  0  0  0  0  0
   -1.9983   -0.9059    0.8294 C   0  0  0  0  0  0  0  0  0  0  0  0
   -1.0026    0.1581    0.8351 C   0  0  0  0  0  0  0  0  0  0  0  0
   -1.1964    1.1288    1.6040 O   0  0  0  0  0  0  0  0  0  0  0  0
    0.0610    0.1314   -0.1943 C   0  0  0  0  0  0  0  0  0  0  0  0
    0.7886    1.4133   -0.2914 C   0  0  0  0  0  0  0  0  0  0  0  0
    0.8691    1.9464   -1.4352 O   0  0  0  0  0  0  0  0  0  0  0  0
    1.6918    1.7587    0.7897 C   0  0  0  0  0  0  0  0  0  0  0  0
    2.4341    0.7935    1.3019 C   0  0  0  0  0  0  0  0  0  0  0  0
    2.6900   -0.5022    0.6392 C   0  0  0  0  0  0  0  0  0  0  0  0
    4.1079   -0.9391    0.8342 C   0  0  0  0  0  0  0  0  0  0  0  0
    4.7510   -0.7468    2.0509 C   0  0  0  0  0  0  0  0  0  0  0  0
    6.1156   -0.4946    2.1116 C   0  0  0  0  0  0  0  0  0  0  0  0
    6.8210   -0.1927    0.9549 C   0  0  0  0  0  0  0  0  0  0  0  0
    7.8268    0.7778    0.9309 O   0  0  0  0  0  0  0  0  0  0  0  0
    6.2711   -0.6558   -0.2344 C   0  0  0  0  0  0  0  0  0  0  0  0
    7.0683   -0.6814   -1.3652 O   0  0  0  0  0  0  0  0  0  0  0  0
    8.3727   -1.2167   -1.3771 C   0  0  0  0  0  0  0  0  0  0  0  0
    4.9461   -1.0602   -0.2678 C   0  0  0  0  0  0  0  0  0  0  0  0
   -3.9386    0.1427   -1.2499 C   0  0  0  0  0  0  0  0  0  0  0  0
   -4.8925    1.0914   -1.5951 C   0  0  0  0  0  0  0  0  0  0  0  0
   -6.2300    0.8480   -1.3151 C   0  0  0  0  0  0  0  0  0  0  0  0
   -7.2560    1.5836   -1.9070 O   0  0  0  0  0  0  0  0  0  0  0  0
  1  2  1  0
  2  3  1  0
  3  4  2  0
  4  5  1  0
  5  6  1  0
  6  7  1  0
  7  8  2  0
  8  9  1  0
  9 10  2  0
  9 11  1  0
 11 12  1  0
 12 13  2  0
 12 14  1  0
 14 15  2  0
 15 16  1  0
 16 17  1  0
 17 18  2  0
 18 19  1  0
 19 20  2  0
 20 21  1  0
 20 22  1  0
 22 23  1  0
 23 24  1  0
 22 25  2  0
  5 26  2  0
 26 27  1  0
 27 28  2  0
 28 29  1  0
 28  3  1  0
 25 17  1  0
M  END
>  <zinc_id>  (1) 
ZINC000085926636

>  <smiles>  (1) 
COc1cc(C/C=C\C(=O)CC(=O)/C=C/Cc2ccc(O)c(OC)c2)ccc1O

$$$$
