
     RDKit          3D

 54 58  0  0  0  0  0  0  0  0999 V2000
   -3.3520   -6.5978   -2.5095 C   0  0  0  0  0  0  0  0  0  0  0  0
   -3.6253   -6.6782   -1.4883 O   0  0  0  0  0  0  0  0  0  0  0  0
   -4.1866   -5.7392   -0.6341 C   0  0  0  0  0  0  0  0  0  0  0  0
   -3.3629   -4.8898    0.0693 C   0  0  0  0  0  0  0  0  0  0  0  0
   -3.8107   -3.7031    0.6306 C   0  0  0  0  0  0  0  0  0  0  0  0
   -2.9742   -2.4974    0.6649 C   0  0  0  0  0  0  0  0  0  0  0  0
   -2.7072   -1.9007   -0.4718 C   0  0  0  0  0  0  0  0  0  0  0  0
   -1.4512   -1.2427   -0.7783 C   0  0  0  0  0  0  0  0  0  0  0  0
   -0.7028   -1.7742   -1.6400 O   0  0  0  0  0  0  0  0  0  0  0  0
   -0.8853   -0.2541    0.1178 C   0  0  0  0  0  0  0  0  0  0  0  0
   -1.3026    0.9698    0.2286 C   0  0  0  0  0  0  0  0  0  0  0  0
   -1.6280    1.7805   -0.9570 C   0  0  0  0  0  0  0  0  0  0  0  0
   -2.4734    2.7898   -0.7913 C   0  0  0  0  0  0  0  0  0  0  0  0
   -2.9481    3.6454   -1.8488 C   0  0  0  0  0  0  0  0  0  0  0  0
   -4.1176    3.2664   -2.4854 C   0  0  0  0  0  0  0  0  0  0  0  0
   -4.5001    3.9503   -3.6307 C   0  0  0  0  0  0  0  0  0  0  0  0
   -3.6111    4.8507   -4.1795 C   0  0  0  0  0  0  0  0  0  0  0  0
   -3.7772    5.2431   -5.4928 O   0  0  0  0  0  0  0  0  0  0  0  0
   -2.4566    5.2265   -3.5146 C   0  0  0  0  0  0  0  0  0  0  0  0
   -1.6397    6.2521   -3.9721 O   0  0  0  0  0  0  0  0  0  0  0  0
   -0.3922    5.9285   -4.5326 C   0  0  0  0  0  0  0  0  0  0  0  0
   -2.2403    4.7440   -2.2495 C   0  0  0  0  0  0  0  0  0  0  0  0
   -0.8685    1.5859    1.3906 O   0  0  0  0  0  0  0  0  0  0  0  0
   -1.2632    0.4569    2.3660 C   0  0  2  0  0  0  0  0  0  0  0  0
   -0.1778    0.8002    3.5229 C   0  0  0  0  0  0  0  0  0  0  0  0
    0.5066    1.9790    3.4291 C   0  0  0  0  0  0  0  0  0  0  0  0
    1.2295    2.3864    4.5363 C   0  0  0  0  0  0  0  0  0  0  0  0
    0.5857    2.2220    5.7553 C   0  0  0  0  0  0  0  0  0  0  0  0
    1.0611    2.8287    6.9121 O   0  0  0  0  0  0  0  0  0  0  0  0
   -0.6396    1.5677    5.7977 C   0  0  0  0  0  0  0  0  0  0  0  0
   -1.5994    1.8770    6.7670 O   0  0  0  0  0  0  0  0  0  0  0  0
   -2.2896    3.1169    6.6195 C   0  0  0  0  0  0  0  0  0  0  0  0
   -0.8624    0.6943    4.7405 C   0  0  0  0  0  0  0  0  0  0  0  0
   -0.2335   -0.6593    1.5262 C   0  0  2  0  0  0  0  0  0  0  0  0
    1.0370    0.3122    1.4227 C   0  0  0  0  0  0  0  0  0  0  0  0
    1.1963    1.0493    0.4516 O   0  0  0  0  0  0  0  0  0  0  0  0
    2.2717   -0.4124    1.7858 C   0  0  0  0  0  0  0  0  0  0  0  0
    2.6384   -1.3992    0.9663 C   0  0  0  0  0  0  0  0  0  0  0  0
    1.6307   -2.3494    0.7714 O   0  0  0  0  0  0  0  0  0  0  0  0
    4.0435   -1.6804    0.6365 C   0  0  0  0  0  0  0  0  0  0  0  0
    4.6478   -0.8609   -0.2092 C   0  0  0  0  0  0  0  0  0  0  0  0
    5.7977   -1.2192   -1.0236 C   0  0  0  0  0  0  0  0  0  0  0  0
    5.5200   -1.5939   -2.3340 C   0  0  0  0  0  0  0  0  0  0  0  0
    6.5999   -1.8445   -3.1559 C   0  0  0  0  0  0  0  0  0  0  0  0
    7.8906   -1.4979   -2.7764 C   0  0  0  0  0  0  0  0  0  0  0  0
    9.0075   -1.7818   -3.5332 O   0  0  0  0  0  0  0  0  0  0  0  0
    8.0273   -0.6397   -1.6932 C   0  0  0  0  0  0  0  0  0  0  0  0
    9.1784    0.1303   -1.6314 O   0  0  0  0  0  0  0  0  0  0  0  0
    9.2765    1.2287   -0.7341 C   0  0  0  0  0  0  0  0  0  0  0  0
    6.9090   -0.3889   -0.9074 C   0  0  0  0  0  0  0  0  0  0  0  0
   -5.1911   -3.5610    0.6970 C   0  0  0  0  0  0  0  0  0  0  0  0
   -6.0309   -4.4283    0.0152 C   0  0  0  0  0  0  0  0  0  0  0  0
   -5.5310   -5.4521   -0.7565 C   0  0  0  0  0  0  0  0  0  0  0  0
   -6.2234   -5.8362   -1.8893 O   0  0  0  0  0  0  0  0  0  0  0  0
  1  2  1  0
  2  3  1  0
  3  4  2  0
  4  5  1  0
  5  6  1  0
  6  7  2  0
  7  8  1  0
  8  9  2  0
  8 10  1  0
 10 11  2  0
 11 12  1  0
 12 13  2  0
 13 14  1  0
 14 15  2  0
 15 16  1  0
 16 17  2  0
 17 18  1  0
 17 19  1  0
 19 20  1  0
 20 21  1  0
 19 22  2  0
 11 23  1  0
 23 24  1  0
 24 25  1  1
 25 26  2  0
 26 27  1  0
 27 28  2  0
 28 29  1  0
 28 30  1  0
 30 31  1  0
 31 32  1  0
 30 33  2  0
 24 34  1  0
 34 35  1  6
 35 36  2  0
 35 37  1  0
 37 38  2  0
 38 39  1  0
 38 40  1  0
 40 41  2  0
 41 42  1  0
 42 43  2  0
 43 44  1  0
 44 45  2  0
 45 46  1  0
 45 47  1  0
 47 48  1  0
 48 49  1  0
 47 50  2  0
  5 51  2  0
 51 52  1  0
 52 53  2  0
 53 54  1  0
 53  3  1  0
 34 10  1  0
 50 42  1  0
 22 14  1  0
 33 25  1  0
M  END
>  <zinc_id>  (1) 
ZINC000150366588

>  <smiles>  (1) 
COc1cc(/C=C/C(=O)C2=C(/C=C/c3ccc(O)c(OC)c3)O[C@H](c3ccc(O)c(OC)c3)[C@@H]2C(=O)/C=C(O)/C=C/c2ccc(O)c(OC)c2)ccc1O

$$$$
