
     RDKit          3D

 27 28  0  0  0  0  0  0  0  0999 V2000
   -6.7535    3.2281   -0.0043 C   0  0  0  0  0  0  0  0  0  0  0  0
   -6.9365    1.9420    0.5499 O   0  0  0  0  0  0  0  0  0  0  0  0
   -5.9938    0.9222    0.4108 C   0  0  0  0  0  0  0  0  0  0  0  0
   -4.6785    1.1733    0.0510 C   0  0  0  0  0  0  0  0  0  0  0  0
   -3.9109    0.2601   -0.6475 C   0  0  0  0  0  0  0  0  0  0  0  0
   -2.8211    0.6803   -1.5786 C   0  0  0  0  0  0  0  0  0  0  0  0
   -1.4805    0.3512   -1.0588 C   0  0  0  0  0  0  0  0  0  0  0  0
   -1.3237   -0.3916    0.0270 C   0  0  0  0  0  0  0  0  0  0  0  0
   -0.2235   -1.3534    0.1653 C   0  0  0  0  0  0  0  0  0  0  0  0
   -0.2006   -2.3853   -0.5631 O   0  0  0  0  0  0  0  0  0  0  0  0
    0.8279   -1.1658    1.2101 C   0  0  0  0  0  0  0  0  0  0  0  0
    1.8649   -0.2810    0.5912 C   0  0  0  0  0  0  0  0  0  0  0  0
    1.5906    0.9578    0.6024 O   0  0  0  0  0  0  0  0  0  0  0  0
    2.4473   -0.7699   -0.6651 C   0  0  0  0  0  0  0  0  0  0  0  0
    3.4057   -1.6683   -0.6352 C   0  0  0  0  0  0  0  0  0  0  0  0
    4.2481   -1.8559    0.5791 C   0  0  0  0  0  0  0  0  0  0  0  0
    5.3573   -0.8539    0.6287 C   0  0  0  0  0  0  0  0  0  0  0  0
    6.5960   -1.0869    0.0726 C   0  0  0  0  0  0  0  0  0  0  0  0
    7.3312    0.0092   -0.3614 C   0  0  0  0  0  0  0  0  0  0  0  0
    6.8645    1.3018   -0.1592 C   0  0  0  0  0  0  0  0  0  0  0  0
    7.2619    2.3465   -0.9885 O   0  0  0  0  0  0  0  0  0  0  0  0
    5.7153    1.5295    0.5874 C   0  0  0  0  0  0  0  0  0  0  0  0
    5.1504    0.4050    1.1767 C   0  0  0  0  0  0  0  0  0  0  0  0
   -4.3250   -1.0647   -0.6125 C   0  0  0  0  0  0  0  0  0  0  0  0
   -5.6459   -1.3390   -0.2894 C   0  0  0  0  0  0  0  0  0  0  0  0
   -6.4996   -0.3397    0.1503 C   0  0  0  0  0  0  0  0  0  0  0  0
   -7.8679   -0.5514   -0.0356 O   0  0  0  0  0  0  0  0  0  0  0  0
  1  2  1  0
  2  3  1  0
  3  4  2  0
  4  5  1  0
  5  6  1  0
  6  7  1  0
  7  8  2  0
  8  9  1  0
  9 10  2  0
  9 11  1  0
 11 12  1  0
 12 13  2  0
 12 14  1  0
 14 15  2  0
 15 16  1  0
 16 17  1  0
 17 18  2  0
 18 19  1  0
 19 20  2  0
 20 21  1  0
 20 22  1  0
 22 23  2  0
  5 24  2  0
 24 25  1  0
 25 26  2  0
 26 27  1  0
 26  3  1  0
 23 17  1  0
M  END
>  <zinc_id>  (1) 
ZINC000016527488

>  <smiles>  (1) 
COc1cc(C/C=C/C(=O)CC(=O)/C=C\Cc2ccc(O)cc2)ccc1O

$$$$
