REMARK  Name = 
REMARK  9 active torsions:
REMARK  status: ('A' for Active; 'I' for Inactive)
REMARK    1  A    between atoms: O_2  and  C_3
REMARK    2  A    between atoms: C_5  and  C_6
REMARK    3  A    between atoms: C_6  and  C_7
REMARK    4  A    between atoms: C_8  and  C_9
REMARK    5  A    between atoms: C_9  and  C_11
REMARK    6  A    between atoms: C_11  and  C_12
REMARK    7  A    between atoms: C_12  and  C_14
REMARK    8  A    between atoms: C_15  and  C_16
REMARK    9  A    between atoms: C_16  and  C_17
REMARK                            x       y       z     vdW  Elec       q    Type
REMARK                         _______ _______ _______ _____ _____    ______ ____
ROOT
ATOM      9  C   UNL     1      -0.224  -1.353   0.165  0.00  0.00    +0.000 C 
ATOM     10  O   UNL     1      -0.201  -2.385  -0.563  0.00  0.00    +0.000 OA
ENDROOT
BRANCH   9   8
ATOM      7  C   UNL     1      -1.480   0.351  -1.059  0.00  0.00    +0.000 C 
ATOM      8  C   UNL     1      -1.324  -0.392   0.027  0.00  0.00    +0.000 C 
BRANCH   7   6
ATOM      6  C   UNL     1      -2.821   0.680  -1.579  0.00  0.00    +0.000 C 
BRANCH   6   5
ATOM      3  C   UNL     1      -5.994   0.922   0.411  0.00  0.00    +0.000 A 
ATOM      4  C   UNL     1      -4.678   1.173   0.051  0.00  0.00    +0.000 A 
ATOM      5  C   UNL     1      -3.911   0.260  -0.647  0.00  0.00    +0.000 A 
ATOM     24  C   UNL     1      -4.325  -1.065  -0.613  0.00  0.00    +0.000 A 
ATOM     25  C   UNL     1      -5.646  -1.339  -0.289  0.00  0.00    +0.000 A 
ATOM     26  C   UNL     1      -6.500  -0.340   0.150  0.00  0.00    +0.000 A 
ATOM     27  O   UNL     1      -7.868  -0.551  -0.036  0.00  0.00    +0.000 OA
BRANCH   3   2
ATOM      1  C   UNL     1      -6.753   3.228  -0.004  0.00  0.00    +0.000 C 
ATOM      2  O   UNL     1      -6.936   1.942   0.550  0.00  0.00    +0.000 OA
ENDBRANCH   3   2
ENDBRANCH   6   5
ENDBRANCH   7   6
ENDBRANCH   9   8
BRANCH   9  11
ATOM     11  C   UNL     1       0.828  -1.166   1.210  0.00  0.00    +0.000 C 
BRANCH  11  12
ATOM     12  C   UNL     1       1.865  -0.281   0.591  0.00  0.00    +0.000 C 
ATOM     13  O   UNL     1       1.591   0.958   0.602  0.00  0.00    +0.000 OA
BRANCH  12  14
ATOM     14  C   UNL     1       2.447  -0.770  -0.665  0.00  0.00    +0.000 C 
ATOM     15  C   UNL     1       3.406  -1.668  -0.635  0.00  0.00    +0.000 C 
BRANCH  15  16
ATOM     16  C   UNL     1       4.248  -1.856   0.579  0.00  0.00    +0.000 C 
BRANCH  16  17
ATOM     17  C   UNL     1       5.357  -0.854   0.629  0.00  0.00    +0.000 A 
ATOM     18  C   UNL     1       6.596  -1.087   0.073  0.00  0.00    +0.000 A 
ATOM     19  C   UNL     1       7.331   0.009  -0.361  0.00  0.00    +0.000 A 
ATOM     20  C   UNL     1       6.864   1.302  -0.159  0.00  0.00    +0.000 A 
ATOM     21  O   UNL     1       7.262   2.346  -0.989  0.00  0.00    +0.000 OA
ATOM     22  C   UNL     1       5.715   1.530   0.587  0.00  0.00    +0.000 A 
ATOM     23  C   UNL     1       5.150   0.405   1.177  0.00  0.00    +0.000 A 
ENDBRANCH  16  17
ENDBRANCH  15  16
ENDBRANCH  12  14
ENDBRANCH  11  12
ENDBRANCH   9  11
TORSDOF 9
