
     RDKit          3D

 54 58  0  0  0  0  0  0  0  0999 V2000
    2.5039   -1.6539   -3.8159 C   0  0  0  0  0  0  0  0  0  0  0  0
    2.0943   -1.9817   -2.8490 O   0  0  0  0  0  0  0  0  0  0  0  0
    1.3674   -1.3383   -1.8410 C   0  0  0  0  0  0  0  0  0  0  0  0
    2.0470   -0.5330   -0.9485 C   0  0  0  0  0  0  0  0  0  0  0  0
    1.3507   -0.0473    0.1518 C   0  0  0  0  0  0  0  0  0  0  0  0
    2.1317    0.5558    1.2054 C   0  0  0  0  0  0  0  0  0  0  0  0
    2.8763   -0.1696    2.0215 C   0  0  0  0  0  0  0  0  0  0  0  0
    4.0301    0.4821    2.6544 C   0  0  0  0  0  0  0  0  0  0  0  0
    3.8093    1.5722    3.2662 O   0  0  0  0  0  0  0  0  0  0  0  0
    5.3964    0.3246    2.1538 C   0  0  0  0  0  0  0  0  0  0  0  0
    5.5038   -0.2800    0.9687 C   0  0  0  0  0  0  0  0  0  0  0  0
    4.9593   -1.5688    0.9599 O   0  0  0  0  0  0  0  0  0  0  0  0
    6.5655    0.0460    0.0245 C   0  0  0  0  0  0  0  0  0  0  0  0
    6.8172    1.2897   -0.3861 C   0  0  0  0  0  0  0  0  0  0  0  0
    8.2250    1.6563   -0.6012 C   0  0  0  0  0  0  0  0  0  0  0  0
    8.7650    1.5017   -1.8730 C   0  0  0  0  0  0  0  0  0  0  0  0
   10.1351    1.3591   -2.0580 C   0  0  0  0  0  0  0  0  0  0  0  0
   10.9739    1.1492   -0.9701 C   0  0  0  0  0  0  0  0  0  0  0  0
   12.1486    0.4162   -1.1683 O   0  0  0  0  0  0  0  0  0  0  0  0
   10.4391    1.2091    0.3117 C   0  0  0  0  0  0  0  0  0  0  0  0
   11.0573    0.4391    1.3041 O   0  0  0  0  0  0  0  0  0  0  0  0
   10.4138   -0.7061    1.8606 C   0  0  0  0  0  0  0  0  0  0  0  0
    9.1494    1.6826    0.4307 C   0  0  0  0  0  0  0  0  0  0  0  0
   -0.0336    0.0502    0.0563 C   0  0  0  0  0  0  0  0  0  0  0  0
   -0.7644   -0.7789   -0.7919 C   0  0  0  0  0  0  0  0  0  0  0  0
   -0.0232   -1.2738   -1.8608 C   0  0  0  0  0  0  0  0  0  0  0  0
   -0.8504   -2.1472   -2.4457 O   0  0  0  0  0  0  0  0  0  0  0  0
   -2.2848   -1.6163   -2.4336 C   0  0  1  0  0  0  0  0  0  0  0  0
   -2.6874   -2.2969   -1.0288 C   0  0  0  0  0  0  0  0  0  0  0  0
   -4.0622   -2.5305   -1.1292 C   0  0  0  0  0  0  0  0  0  0  0  0
   -4.6320   -3.6187   -0.4745 C   0  0  0  0  0  0  0  0  0  0  0  0
   -3.9130   -4.0769    0.6242 C   0  0  0  0  0  0  0  0  0  0  0  0
   -4.5269   -4.6843    1.7166 O   0  0  0  0  0  0  0  0  0  0  0  0
   -2.5279   -3.9649    0.5845 C   0  0  0  0  0  0  0  0  0  0  0  0
   -1.8514   -4.1305    1.7952 O   0  0  0  0  0  0  0  0  0  0  0  0
   -0.5214   -3.7609    2.0218 C   0  0  0  0  0  0  0  0  0  0  0  0
   -1.9762   -3.3233   -0.5185 C   0  0  0  0  0  0  0  0  0  0  0  0
   -1.8455   -0.0897   -1.7582 C   0  0  1  0  0  0  0  0  0  0  0  0
   -3.0443   -0.0145   -0.7026 C   0  0  0  0  0  0  0  0  0  0  0  0
   -2.7754   -0.0610    0.5082 O   0  0  0  0  0  0  0  0  0  0  0  0
   -4.1197    0.9307   -1.0482 C   0  0  0  0  0  0  0  0  0  0  0  0
   -4.0132    2.1989   -0.6912 C   0  0  0  0  0  0  0  0  0  0  0  0
   -2.7996    2.5694   -0.1011 O   0  0  0  0  0  0  0  0  0  0  0  0
   -5.1041    3.1185   -0.5007 C   0  0  0  0  0  0  0  0  0  0  0  0
   -6.2448    3.1252   -1.1391 C   0  0  0  0  0  0  0  0  0  0  0  0
   -7.5380    3.2855   -0.4591 C   0  0  0  0  0  0  0  0  0  0  0  0
   -7.5690    3.8635    0.7846 C   0  0  0  0  0  0  0  0  0  0  0  0
   -8.4055    3.4531    1.8086 C   0  0  0  0  0  0  0  0  0  0  0  0
   -9.4636    2.6504    1.4534 C   0  0  0  0  0  0  0  0  0  0  0  0
  -10.6681    2.6545    2.1227 O   0  0  0  0  0  0  0  0  0  0  0  0
   -9.3491    1.8775    0.3042 C   0  0  0  0  0  0  0  0  0  0  0  0
  -10.4398    1.1391   -0.1682 O   0  0  0  0  0  0  0  0  0  0  0  0
  -10.2608   -0.2309   -0.5040 C   0  0  0  0  0  0  0  0  0  0  0  0
   -8.4647    2.2774   -0.6910 C   0  0  0  0  0  0  0  0  0  0  0  0
  1  2  1  0
  2  3  1  0
  3  4  2  0
  4  5  1  0
  5  6  1  0
  6  7  2  0
  7  8  1  0
  8  9  2  0
  8 10  1  0
 10 11  2  0
 11 12  1  0
 11 13  1  0
 13 14  2  0
 14 15  1  0
 15 16  2  0
 16 17  1  0
 17 18  2  0
 18 19  1  0
 18 20  1  0
 20 21  1  0
 21 22  1  0
 20 23  2  0
  5 24  2  0
 24 25  1  0
 25 26  2  0
 26 27  1  0
 27 28  1  0
 28 29  1  1
 29 30  2  0
 30 31  1  0
 31 32  2  0
 32 33  1  0
 32 34  1  0
 34 35  1  0
 35 36  1  0
 34 37  2  0
 28 38  1  0
 38 39  1  1
 39 40  2  0
 39 41  1  0
 41 42  2  0
 42 43  1  0
 42 44  1  0
 44 45  2  0
 45 46  1  0
 46 47  2  0
 47 48  1  0
 48 49  2  0
 49 50  1  0
 49 51  1  0
 51 52  1  0
 52 53  1  0
 51 54  2  0
 26  3  1  0
 37 29  1  0
 54 46  1  0
 23 15  1  0
 38 25  1  0
M  END
>  <zinc_id>  (1) 
ZINC000150368122

>  <smiles>  (1) 
COc1cc(/C=C/C(O)=C/C(=O)/C=C/c2cc(OC)c3c(c2)[C@H](C(=O)/C=C(O)/C=C/c2ccc(O)c(OC)c2)[C@H](c2ccc(O)c(OC)c2)O3)ccc1O

$$$$
