
     RDKit          3D

 54 58  0  0  0  0  0  0  0  0999 V2000
   -6.7357    5.2750   -2.8556 C   0  0  0  0  0  0  0  0  0  0  0  0
   -7.2728    5.8690   -1.7134 O   0  0  0  0  0  0  0  0  0  0  0  0
   -7.5271    5.1621   -0.5287 C   0  0  0  0  0  0  0  0  0  0  0  0
   -6.9801    3.9031   -0.3188 C   0  0  0  0  0  0  0  0  0  0  0  0
   -6.5331    3.4889    0.9141 C   0  0  0  0  0  0  0  0  0  0  0  0
   -5.5220    2.4338    1.0660 C   0  0  0  0  0  0  0  0  0  0  0  0
   -4.4708    2.4614    0.2567 C   0  0  0  0  0  0  0  0  0  0  0  0
   -3.2433    1.7441    0.6345 C   0  0  0  0  0  0  0  0  0  0  0  0
   -2.4924    2.3877    1.4312 O   0  0  0  0  0  0  0  0  0  0  0  0
   -2.5730    1.0720   -0.4856 C   0  0  0  0  0  0  0  0  0  0  0  0
   -1.4092    0.4654   -0.2368 C   0  0  0  0  0  0  0  0  0  0  0  0
   -1.1529   -0.3278    0.9045 O   0  0  0  0  0  0  0  0  0  0  0  0
   -0.4820   -1.5732    0.2800 C   0  0  2  0  0  0  0  0  0  0  0  0
    0.4421   -1.9252    1.5515 C   0  0  0  0  0  0  0  0  0  0  0  0
    0.8293   -3.2530    1.3320 C   0  0  0  0  0  0  0  0  0  0  0  0
    1.2088   -4.0942    2.3424 C   0  0  0  0  0  0  0  0  0  0  0  0
    0.5259   -3.9424    3.5321 C   0  0  0  0  0  0  0  0  0  0  0  0
    0.5018   -4.9299    4.5154 O   0  0  0  0  0  0  0  0  0  0  0  0
   -0.1897   -2.7843    3.7491 C   0  0  0  0  0  0  0  0  0  0  0  0
   -0.6848   -2.5073    5.0266 O   0  0  0  0  0  0  0  0  0  0  0  0
   -1.9512   -1.8555    5.0408 C   0  0  0  0  0  0  0  0  0  0  0  0
   -0.1570   -1.7743    2.7961 C   0  0  0  0  0  0  0  0  0  0  0  0
    0.6105   -0.4750   -0.4435 C   0  0  1  0  0  0  0  0  0  0  0  0
    1.3783   -1.4534   -1.4486 C   0  0  0  0  0  0  0  0  0  0  0  0
    1.7370   -0.5997   -2.3476 O   0  0  0  0  0  0  0  0  0  0  0  0
    2.6687   -1.8525   -0.8287 C   0  0  0  0  0  0  0  0  0  0  0  0
    3.5093   -0.9789   -0.3087 C   0  0  0  0  0  0  0  0  0  0  0  0
    2.9257    0.2497    0.0183 O   0  0  0  0  0  0  0  0  0  0  0  0
    4.9474   -1.2319   -0.1314 C   0  0  0  0  0  0  0  0  0  0  0  0
    5.6811   -0.6248    0.7486 C   0  0  0  0  0  0  0  0  0  0  0  0
    6.9743    0.0235    0.4902 C   0  0  0  0  0  0  0  0  0  0  0  0
    7.4562    0.1684   -0.8071 C   0  0  0  0  0  0  0  0  0  0  0  0
    8.2367    1.2460   -1.2003 C   0  0  0  0  0  0  0  0  0  0  0  0
    8.2800    2.3187   -0.3174 C   0  0  0  0  0  0  0  0  0  0  0  0
    8.1769    3.6461   -0.7066 O   0  0  0  0  0  0  0  0  0  0  0  0
    8.1257    2.0567    1.0423 C   0  0  0  0  0  0  0  0  0  0  0  0
    8.8582    2.8368    1.9034 O   0  0  0  0  0  0  0  0  0  0  0  0
    8.2540    4.0341    2.3888 C   0  0  0  0  0  0  0  0  0  0  0  0
    7.3850    0.9494    1.4433 C   0  0  0  0  0  0  0  0  0  0  0  0
   -0.6206   -0.0577   -1.3793 C   0  0  0  0  0  0  0  0  0  0  0  0
   -0.9662   -0.6881   -2.4676 C   0  0  0  0  0  0  0  0  0  0  0  0
   -0.8438   -2.1428   -2.6742 C   0  0  0  0  0  0  0  0  0  0  0  0
   -2.0768   -2.7432   -2.3585 C   0  0  0  0  0  0  0  0  0  0  0  0
   -2.3880   -4.0355   -2.6690 C   0  0  0  0  0  0  0  0  0  0  0  0
   -1.4846   -4.7608   -3.4410 C   0  0  0  0  0  0  0  0  0  0  0  0
   -1.5455   -6.1421   -3.2470 O   0  0  0  0  0  0  0  0  0  0  0  0
   -0.3143   -4.1208   -3.8362 C   0  0  0  0  0  0  0  0  0  0  0  0
    0.8262   -4.8511   -4.1244 O   0  0  0  0  0  0  0  0  0  0  0  0
    0.9449   -6.1546   -3.5512 C   0  0  0  0  0  0  0  0  0  0  0  0
   -0.4035   -2.7334   -3.8627 C   0  0  0  0  0  0  0  0  0  0  0  0
   -6.8642    4.2821    2.0058 C   0  0  0  0  0  0  0  0  0  0  0  0
   -7.3239    5.5564    1.8538 C   0  0  0  0  0  0  0  0  0  0  0  0
   -7.7450    5.9253    0.5888 C   0  0  0  0  0  0  0  0  0  0  0  0
   -8.5304    7.0577    0.4337 O   0  0  0  0  0  0  0  0  0  0  0  0
  1  2  1  0
  2  3  1  0
  3  4  2  0
  4  5  1  0
  5  6  1  0
  6  7  2  0
  7  8  1  0
  8  9  2  0
  8 10  1  0
 10 11  2  0
 11 12  1  0
 12 13  1  0
 13 14  1  1
 14 15  2  0
 15 16  1  0
 16 17  2  0
 17 18  1  0
 17 19  1  0
 19 20  1  0
 20 21  1  0
 19 22  2  0
 13 23  1  0
 23 24  1  6
 24 25  2  0
 24 26  1  0
 26 27  2  0
 27 28  1  0
 27 29  1  0
 29 30  2  0
 30 31  1  0
 31 32  2  0
 32 33  1  0
 33 34  2  0
 34 35  1  0
 34 36  1  0
 36 37  1  0
 37 38  1  0
 36 39  2  0
 23 40  1  0
 40 41  2  0
 41 42  1  0
 42 43  2  0
 43 44  1  0
 44 45  2  0
 45 46  1  0
 45 47  1  0
 47 48  1  0
 48 49  1  0
 47 50  2  0
  5 51  2  0
 51 52  1  0
 52 53  2  0
 53 54  1  0
 53  3  1  0
 40 11  1  0
 50 42  1  0
 22 14  1  0
 39 31  1  0
M  END
>  <zinc_id>  (1) 
ZINC000150368137

>  <smiles>  (1) 
COc1cc(/C=C/C(=O)/C=C2\O[C@H](c3ccc(O)c(OC)c3)[C@@H](C(=O)/C=C(O)/C=C/c3ccc(O)c(OC)c3)\C2=C/c2ccc(O)c(OC)c2)ccc1O

$$$$
