
     RDKit          3D

 54 58  0  0  0  0  0  0  0  0999 V2000
    1.5579   -1.9086    1.9608 C   0  0  0  0  0  0  0  0  0  0  0  0
    0.6581   -1.4565    1.9628 O   0  0  0  0  0  0  0  0  0  0  0  0
    0.3169   -0.2285    1.3773 C   0  0  0  0  0  0  0  0  0  0  0  0
    1.1781    0.8635    1.4722 C   0  0  0  0  0  0  0  0  0  0  0  0
    1.3190    1.7022    0.3689 C   0  0  0  0  0  0  0  0  0  0  0  0
    2.6339    2.3087    0.1103 C   0  0  0  0  0  0  0  0  0  0  0  0
    3.2840    2.2179   -1.0132 C   0  0  0  0  0  0  0  0  0  0  0  0
    4.5426    1.4949   -1.2150 C   0  0  0  0  0  0  0  0  0  0  0  0
    4.7586    1.1200   -2.4072 O   0  0  0  0  0  0  0  0  0  0  0  0
    5.4535    1.1792   -0.1160 C   0  0  0  0  0  0  0  0  0  0  0  0
    5.4826   -0.0198    0.4472 C   0  0  0  0  0  0  0  0  0  0  0  0
    4.3015   -0.7260    0.4869 O   0  0  0  0  0  0  0  0  0  0  0  0
    6.6978   -0.7351    0.7888 C   0  0  0  0  0  0  0  0  0  0  0  0
    7.2358   -1.6894    0.0558 C   0  0  0  0  0  0  0  0  0  0  0  0
    8.6447   -1.6758   -0.3591 C   0  0  0  0  0  0  0  0  0  0  0  0
    8.9705   -1.4083   -1.6796 C   0  0  0  0  0  0  0  0  0  0  0  0
   10.1603   -0.8636   -2.0747 C   0  0  0  0  0  0  0  0  0  0  0  0
   11.1372   -0.6561   -1.1156 C   0  0  0  0  0  0  0  0  0  0  0  0
   12.1428    0.2361   -1.4295 O   0  0  0  0  0  0  0  0  0  0  0  0
   10.9006   -1.0681    0.1853 C   0  0  0  0  0  0  0  0  0  0  0  0
   11.7048   -0.5003    1.1786 O   0  0  0  0  0  0  0  0  0  0  0  0
   11.2040    0.7099    1.7414 C   0  0  0  0  0  0  0  0  0  0  0  0
    9.6856   -1.6367    0.5502 C   0  0  0  0  0  0  0  0  0  0  0  0
    0.3728    1.6392   -0.6505 C   0  0  0  0  0  0  0  0  0  0  0  0
   -0.5529    0.6052   -0.7435 C   0  0  0  0  0  0  0  0  0  0  0  0
   -0.6940   -0.1533    0.4190 C   0  0  0  0  0  0  0  0  0  0  0  0
   -1.3469   -1.1874   -0.1767 O   0  0  0  0  0  0  0  0  0  0  0  0
   -2.6562   -0.6170   -0.7697 C   0  0  1  0  0  0  0  0  0  0  0  0
   -3.3824   -0.4421    0.6771 C   0  0  0  0  0  0  0  0  0  0  0  0
   -2.9587   -1.0994    1.7535 C   0  0  0  0  0  0  0  0  0  0  0  0
   -3.3078   -0.5935    3.0045 C   0  0  0  0  0  0  0  0  0  0  0  0
   -4.0530    0.5765    3.0849 C   0  0  0  0  0  0  0  0  0  0  0  0
   -3.9366    1.4653    4.1549 O   0  0  0  0  0  0  0  0  0  0  0  0
   -4.8667    0.8257    1.9854 C   0  0  0  0  0  0  0  0  0  0  0  0
   -5.6253    1.9998    2.0207 O   0  0  0  0  0  0  0  0  0  0  0  0
   -5.2669    3.1381    1.2685 C   0  0  0  0  0  0  0  0  0  0  0  0
   -4.3563    0.5157    0.7259 C   0  0  0  0  0  0  0  0  0  0  0  0
   -2.1067    1.0315   -0.7445 C   0  0  2  0  0  0  0  0  0  0  0  0
   -2.1495    1.1436   -2.3512 C   0  0  0  0  0  0  0  0  0  0  0  0
   -1.3656    2.0197   -2.8261 O   0  0  0  0  0  0  0  0  0  0  0  0
   -3.4101    0.7801   -2.9639 C   0  0  0  0  0  0  0  0  0  0  0  0
   -4.4638    1.5926   -3.0467 C   0  0  0  0  0  0  0  0  0  0  0  0
   -4.2649    2.8511   -2.4661 O   0  0  0  0  0  0  0  0  0  0  0  0
   -5.8046    1.0200   -2.8432 C   0  0  0  0  0  0  0  0  0  0  0  0
   -6.4757    1.1441   -1.7212 C   0  0  0  0  0  0  0  0  0  0  0  0
   -6.9749    0.0691   -0.8992 C   0  0  0  0  0  0  0  0  0  0  0  0
   -6.4396   -0.0950    0.3725 C   0  0  0  0  0  0  0  0  0  0  0  0
   -6.9579   -1.0489    1.2401 C   0  0  0  0  0  0  0  0  0  0  0  0
   -8.0071   -1.8413    0.7919 C   0  0  0  0  0  0  0  0  0  0  0  0
   -8.8794   -2.4929    1.6544 O   0  0  0  0  0  0  0  0  0  0  0  0
   -8.0267   -2.0561   -0.5805 C   0  0  0  0  0  0  0  0  0  0  0  0
   -8.8494   -3.0605   -1.0546 O   0  0  0  0  0  0  0  0  0  0  0  0
   -9.5100   -3.9566   -0.1924 C   0  0  0  0  0  0  0  0  0  0  0  0
   -7.6541   -1.0327   -1.4078 C   0  0  0  0  0  0  0  0  0  0  0  0
  1  2  1  0
  2  3  1  0
  3  4  2  0
  4  5  1  0
  5  6  1  0
  6  7  2  0
  7  8  1  0
  8  9  2  0
  8 10  1  0
 10 11  2  0
 11 12  1  0
 11 13  1  0
 13 14  2  0
 14 15  1  0
 15 16  2  0
 16 17  1  0
 17 18  2  0
 18 19  1  0
 18 20  1  0
 20 21  1  0
 21 22  1  0
 20 23  2  0
  5 24  2  0
 24 25  1  0
 25 26  2  0
 26 27  1  0
 27 28  1  0
 28 29  1  1
 29 30  2  0
 30 31  1  0
 31 32  2  0
 32 33  1  0
 32 34  1  0
 34 35  1  0
 35 36  1  0
 34 37  2  0
 28 38  1  0
 38 39  1  6
 39 40  2  0
 39 41  1  0
 41 42  2  0
 42 43  1  0
 42 44  1  0
 44 45  2  0
 45 46  1  0
 46 47  2  0
 47 48  1  0
 48 49  2  0
 49 50  1  0
 49 51  1  0
 51 52  1  0
 52 53  1  0
 51 54  2  0
 26  3  1  0
 37 29  1  0
 54 46  1  0
 23 15  1  0
 38 25  1  0
M  END
>  <zinc_id>  (1) 
ZINC000150368109

>  <smiles>  (1) 
COc1cc(/C=C/C(O)=C/C(=O)/C=C/c2cc(OC)c3c(c2)[C@@H](C(=O)/C=C(O)/C=C/c2ccc(O)c(OC)c2)[C@H](c2ccc(O)c(OC)c2)O3)ccc1O

$$$$
