REMARK  Name = 
REMARK  14 active torsions:
REMARK  status: ('A' for Active; 'I' for Inactive)
REMARK    1  A    between atoms: O_2  and  C_3
REMARK    2  A    between atoms: C_5  and  C_6
REMARK    3  A    between atoms: C_7  and  C_8
REMARK    4  A    between atoms: C_8  and  C_10
REMARK    5  A    between atoms: C_11  and  C_13
REMARK    6  A    between atoms: C_14  and  C_15
REMARK    7  A    between atoms: C_20  and  O_21
REMARK    8  A    between atoms: C_28  and  C_29
REMARK    9  A    between atoms: C_34  and  O_35
REMARK   10  A    between atoms: C_38  and  C_39
REMARK   11  A    between atoms: C_39  and  C_41
REMARK   12  A    between atoms: C_42  and  C_44
REMARK   13  A    between atoms: C_45  and  C_46
REMARK   14  A    between atoms: C_51  and  O_52
REMARK                            x       y       z     vdW  Elec       q    Type
REMARK                         _______ _______ _______ _____ _____    ______ ____
ROOT
ATOM      3  C   UNL     1       0.717  -2.450   0.791  0.00  0.00    +0.000 A 
ATOM      4  C   UNL     1       1.258  -2.358  -0.486  0.00  0.00    +0.000 A 
ATOM      5  C   UNL     1       0.887  -1.263  -1.261  0.00  0.00    +0.000 A 
ATOM     24  C   UNL     1      -0.429  -0.869  -1.070  0.00  0.00    +0.000 A 
ATOM     25  C   UNL     1      -1.204  -1.401  -0.074  0.00  0.00    +0.000 A 
ATOM     26  C   UNL     1      -0.554  -1.926   1.008  0.00  0.00    +0.000 A 
ATOM     27  O   UNL     1      -1.346  -2.178   2.075  0.00  0.00    +0.000 OA
ATOM     28  C   UNL     1      -2.798  -1.828   1.660  0.00  0.00    +0.000 C 
ATOM     38  C   UNL     1      -2.223  -0.461   0.742  0.00  0.00    +0.000 C 
ENDROOT
BRANCH  28  29
ATOM     29  C   UNL     1      -2.864  -2.843   0.379  0.00  0.00    +0.000 A 
ATOM     30  C   UNL     1      -4.220  -3.076   0.139  0.00  0.00    +0.000 A 
ATOM     31  C   UNL     1      -4.749  -4.353   0.000  0.00  0.00    +0.000 A 
ATOM     32  C   UNL     1      -3.889  -5.425  -0.095  0.00  0.00    +0.000 A 
ATOM     33  O   UNL     1      -4.286  -6.746   0.133  0.00  0.00    +0.000 OA
ATOM     34  C   UNL     1      -2.525  -5.165  -0.119  0.00  0.00    +0.000 A 
ATOM     37  C   UNL     1      -2.144  -4.010   0.511  0.00  0.00    +0.000 A 
BRANCH  34  35
ATOM     35  O   UNL     1      -1.714  -6.011  -0.828  0.00  0.00    +0.000 OA
ATOM     36  C   UNL     1      -0.349  -5.818  -1.082  0.00  0.00    +0.000 C 
ENDBRANCH  34  35
ENDBRANCH  28  29
BRANCH   3   2
ATOM      1  C   UNL     1       1.787  -4.508   1.309  0.00  0.00    +0.000 C 
ATOM      2  O   UNL     1       1.357  -3.258   1.733  0.00  0.00    +0.000 OA
ENDBRANCH   3   2
BRANCH   5   6
ATOM      6  C   UNL     1       1.874  -0.439  -1.971  0.00  0.00    +0.000 C 
ATOM      7  C   UNL     1       2.606   0.488  -1.353  0.00  0.00    +0.000 C 
BRANCH   7   8
ATOM      8  C   UNL     1       4.051   0.556  -1.412  0.00  0.00    +0.000 C 
ATOM      9  O   UNL     1       4.553   1.278  -2.314  0.00  0.00    +0.000 OA
BRANCH   8  10
ATOM     10  C   UNL     1       4.938  -0.277  -0.591  0.00  0.00    +0.000 C 
ATOM     11  C   UNL     1       5.414   0.102   0.577  0.00  0.00    +0.000 C 
ATOM     12  O   UNL     1       4.571   0.952   1.305  0.00  0.00    +0.000 OA
BRANCH  11  13
ATOM     13  C   UNL     1       6.793   0.079   0.982  0.00  0.00    +0.000 C 
ATOM     14  C   UNL     1       7.749  -0.696   0.552  0.00  0.00    +0.000 C 
BRANCH  14  15
ATOM     15  C   UNL     1       9.020  -0.169   0.030  0.00  0.00    +0.000 A 
ATOM     16  C   UNL     1       9.175   0.028  -1.337  0.00  0.00    +0.000 A 
ATOM     17  C   UNL     1       9.712   1.175  -1.878  0.00  0.00    +0.000 A 
ATOM     18  C   UNL     1      10.399   2.014  -1.006  0.00  0.00    +0.000 A 
ATOM     19  O   UNL     1      10.490   3.389  -1.257  0.00  0.00    +0.000 OA
ATOM     20  C   UNL     1      10.592   1.651   0.324  0.00  0.00    +0.000 A 
ATOM     23  C   UNL     1       9.885   0.567   0.832  0.00  0.00    +0.000 A 
BRANCH  20  21
ATOM     21  O   UNL     1      11.803   2.069   0.874  0.00  0.00    +0.000 OA
ATOM     22  C   UNL     1      11.978   2.548   2.169  0.00  0.00    +0.000 C 
ENDBRANCH  20  21
ENDBRANCH  14  15
ENDBRANCH  11  13
ENDBRANCH   8  10
ENDBRANCH   7   8
ENDBRANCH   5   6
BRANCH  38  39
ATOM     39  C   UNL     1      -3.401  -0.571  -0.352  0.00  0.00    +0.000 C 
ATOM     40  O   UNL     1      -3.037  -0.278  -1.534  0.00  0.00    +0.000 OA
BRANCH  39  41
ATOM     41  C   UNL     1      -4.517   0.273   0.118  0.00  0.00    +0.000 C 
ATOM     42  C   UNL     1      -4.408   1.580  -0.070  0.00  0.00    +0.000 C 
ATOM     43  O   UNL     1      -3.364   2.029  -0.887  0.00  0.00    +0.000 OA
BRANCH  42  44
ATOM     44  C   UNL     1      -5.290   2.582   0.466  0.00  0.00    +0.000 C 
ATOM     45  C   UNL     1      -6.423   2.381   1.093  0.00  0.00    +0.000 C 
BRANCH  45  46
ATOM     46  C   UNL     1      -7.640   3.127   0.771  0.00  0.00    +0.000 A 
ATOM     47  C   UNL     1      -8.624   2.530  -0.007  0.00  0.00    +0.000 A 
ATOM     48  C   UNL     1      -9.310   3.306  -0.933  0.00  0.00    +0.000 A 
ATOM     49  C   UNL     1      -9.121   4.675  -1.037  0.00  0.00    +0.000 A 
ATOM     50  O   UNL     1      -9.241   5.285  -2.277  0.00  0.00    +0.000 OA
ATOM     51  C   UNL     1      -8.428   5.267   0.005  0.00  0.00    +0.000 A 
ATOM     54  C   UNL     1      -7.774   4.489   0.954  0.00  0.00    +0.000 A 
BRANCH  51  52
ATOM     52  O   UNL     1      -8.362   6.663   0.020  0.00  0.00    +0.000 OA
ATOM     53  C   UNL     1      -7.376   7.292   0.791  0.00  0.00    +0.000 C 
ENDBRANCH  51  52
ENDBRANCH  45  46
ENDBRANCH  42  44
ENDBRANCH  39  41
ENDBRANCH  38  39
TORSDOF 14
