
     RDKit          3D

 25 26  0  0  0  0  0  0  0  0999 V2000
   -1.5333   -3.4498    0.5158 O   0  0  0  0  0  0  0  0  0  0  0  0
   -1.0811   -2.3333    0.1189 C   0  0  0  0  0  0  0  0  0  0  0  0
   -2.0425   -1.4129   -0.4472 C   0  0  0  0  0  0  0  0  0  0  0  0
   -1.8416   -0.1453   -0.6839 C   0  0  0  0  0  0  0  0  0  0  0  0
   -2.7272    0.9698   -0.3614 C   0  0  0  0  0  0  0  0  0  0  0  0
   -4.0597    0.5967    0.1256 C   0  0  0  0  0  0  0  0  0  0  0  0
   -4.9965    1.6204    0.2194 C   0  0  0  0  0  0  0  0  0  0  0  0
   -6.3549    1.3487    0.1097 C   0  0  0  0  0  0  0  0  0  0  0  0
   -6.7952    0.0934   -0.2892 C   0  0  0  0  0  0  0  0  0  0  0  0
   -7.8363   -0.0700   -1.2044 O   0  0  0  0  0  0  0  0  0  0  0  0
   -5.9143   -0.9524   -0.0439 C   0  0  0  0  0  0  0  0  0  0  0  0
   -4.5716   -0.6740    0.1779 C   0  0  0  0  0  0  0  0  0  0  0  0
    0.2500   -1.9153    0.6481 C   0  0  0  0  0  0  0  0  0  0  0  0
    1.1352   -1.5224   -0.4916 C   0  0  0  0  0  0  0  0  0  0  0  0
    0.8919   -2.0561   -1.6161 O   0  0  0  0  0  0  0  0  0  0  0  0
    1.5510   -0.1152   -0.5501 C   0  0  0  0  0  0  0  0  0  0  0  0
    2.6123    0.1302   -1.3204 C   0  0  0  0  0  0  0  0  0  0  0  0
    3.8173   -0.7088   -1.0320 C   0  0  0  0  0  0  0  0  0  0  0  0
    4.7516    0.1592   -0.2492 C   0  0  0  0  0  0  0  0  0  0  0  0
    6.0632    0.3543   -0.6033 C   0  0  0  0  0  0  0  0  0  0  0  0
    6.7602    1.3989   -0.0094 C   0  0  0  0  0  0  0  0  0  0  0  0
    6.0711    2.3550    0.7118 C   0  0  0  0  0  0  0  0  0  0  0  0
    6.7439    3.4414    1.2425 O   0  0  0  0  0  0  0  0  0  0  0  0
    4.9259    1.9368    1.3552 C   0  0  0  0  0  0  0  0  0  0  0  0
    4.1806    0.9505    0.7216 C   0  0  0  0  0  0  0  0  0  0  0  0
  1  2  2  0
  2  3  1  0
  3  4  2  0
  4  5  1  0
  5  6  1  0
  6  7  2  0
  7  8  1  0
  8  9  2  0
  9 10  1  0
  9 11  1  0
 11 12  2  0
  2 13  1  0
 13 14  1  0
 14 15  2  0
 14 16  1  0
 16 17  2  0
 17 18  1  0
 18 19  1  0
 19 20  2  0
 20 21  1  0
 21 22  2  0
 22 23  1  0
 22 24  1  0
 24 25  2  0
 12  6  1  0
 25 19  1  0
M  END
>  <zinc_id>  (1) 
ZINC000014948330

>  <smiles>  (1) 
O=C(/C=C\Cc1ccc(O)cc1)CC(=O)/C=C/Cc1ccc(O)cc1

$$$$
