
     RDKit          3D

 54 58  0  0  0  0  0  0  0  0999 V2000
   -6.8698    4.8304    2.8611 C   0  0  0  0  0  0  0  0  0  0  0  0
   -7.7869    3.7745    2.7535 O   0  0  0  0  0  0  0  0  0  0  0  0
   -7.3574    2.4723    2.5292 C   0  0  0  0  0  0  0  0  0  0  0  0
   -6.3077    2.1801    1.6661 C   0  0  0  0  0  0  0  0  0  0  0  0
   -5.8258    0.8802    1.5606 C   0  0  0  0  0  0  0  0  0  0  0  0
   -4.3848    0.5957    1.5275 C   0  0  0  0  0  0  0  0  0  0  0  0
   -3.6911    0.4349    2.6370 C   0  0  0  0  0  0  0  0  0  0  0  0
   -2.3175    0.9070    2.8074 C   0  0  0  0  0  0  0  0  0  0  0  0
   -1.9572    1.3179    3.9274 O   0  0  0  0  0  0  0  0  0  0  0  0
   -1.6723    1.3934    1.5771 C   0  0  0  0  0  0  0  0  0  0  0  0
   -0.8321    0.6116    0.8932 C   0  0  0  0  0  0  0  0  0  0  0  0
   -0.0356   -0.2163    1.4489 O   0  0  0  0  0  0  0  0  0  0  0  0
    0.7047   -1.1709    0.5458 C   0  0  1  0  0  0  0  0  0  0  0  0
   -0.5447   -2.1590    0.3335 C   0  0  0  0  0  0  0  0  0  0  0  0
   -1.7562   -1.7615    0.0315 C   0  0  0  0  0  0  0  0  0  0  0  0
   -2.6963   -2.6446   -0.4307 C   0  0  0  0  0  0  0  0  0  0  0  0
   -2.2222   -3.7797   -1.0743 C   0  0  0  0  0  0  0  0  0  0  0  0
   -2.9919   -4.4580   -2.0198 O   0  0  0  0  0  0  0  0  0  0  0  0
   -0.9469   -4.2458   -0.7911 C   0  0  0  0  0  0  0  0  0  0  0  0
   -0.7212   -5.6182   -0.8821 O   0  0  0  0  0  0  0  0  0  0  0  0
    0.5652   -6.1905   -0.9302 C   0  0  0  0  0  0  0  0  0  0  0  0
   -0.1109   -3.4170   -0.0538 C   0  0  0  0  0  0  0  0  0  0  0  0
    0.4770   -0.3420   -0.9320 C   0  0  2  0  0  0  0  0  0  0  0  0
    1.5922    0.7417   -0.5369 C   0  0  0  0  0  0  0  0  0  0  0  0
    1.4723    1.8586   -1.1195 O   0  0  0  0  0  0  0  0  0  0  0  0
    2.8898    0.1093   -0.6361 C   0  0  0  0  0  0  0  0  0  0  0  0
    3.8039    0.3815   -1.5329 C   0  0  0  0  0  0  0  0  0  0  0  0
    3.5897    1.5012   -2.3416 O   0  0  0  0  0  0  0  0  0  0  0  0
    5.2021    0.1323   -1.1580 C   0  0  0  0  0  0  0  0  0  0  0  0
    5.5831   -0.8392   -0.3692 C   0  0  0  0  0  0  0  0  0  0  0  0
    6.6696   -0.7284    0.6134 C   0  0  0  0  0  0  0  0  0  0  0  0
    6.5597   -1.6059    1.6869 C   0  0  0  0  0  0  0  0  0  0  0  0
    7.2803   -1.4157    2.8376 C   0  0  0  0  0  0  0  0  0  0  0  0
    8.0978   -0.3177    2.9318 C   0  0  0  0  0  0  0  0  0  0  0  0
    9.2517   -0.3504    3.7206 O   0  0  0  0  0  0  0  0  0  0  0  0
    7.8389    0.7665    2.1194 C   0  0  0  0  0  0  0  0  0  0  0  0
    8.6553    1.8973    2.1267 O   0  0  0  0  0  0  0  0  0  0  0  0
    8.1711    3.0972    1.5696 C   0  0  0  0  0  0  0  0  0  0  0  0
    7.1422    0.5365    0.9434 C   0  0  0  0  0  0  0  0  0  0  0  0
   -0.7084    0.5900   -0.4719 C   0  0  0  0  0  0  0  0  0  0  0  0
   -1.3615    1.1978   -1.4228 C   0  0  0  0  0  0  0  0  0  0  0  0
   -1.0279    1.1762   -2.8271 C   0  0  0  0  0  0  0  0  0  0  0  0
   -1.1793    2.3183   -3.5848 C   0  0  0  0  0  0  0  0  0  0  0  0
   -0.3333    2.4953   -4.6729 C   0  0  0  0  0  0  0  0  0  0  0  0
    0.2394    1.3785   -5.2486 C   0  0  0  0  0  0  0  0  0  0  0  0
    1.3570    1.5164   -6.0778 O   0  0  0  0  0  0  0  0  0  0  0  0
   -0.1452    0.1258   -4.7866 C   0  0  0  0  0  0  0  0  0  0  0  0
    0.1114   -0.9598   -5.5958 O   0  0  0  0  0  0  0  0  0  0  0  0
    0.0792   -2.3008   -5.1804 C   0  0  0  0  0  0  0  0  0  0  0  0
   -0.6607    0.0266   -3.5049 C   0  0  0  0  0  0  0  0  0  0  0  0
   -6.7419   -0.1032    1.9156 C   0  0  0  0  0  0  0  0  0  0  0  0
   -7.7943    0.1859    2.7762 C   0  0  0  0  0  0  0  0  0  0  0  0
   -7.9998    1.4752    3.2546 C   0  0  0  0  0  0  0  0  0  0  0  0
   -8.3527    1.7187    4.5863 O   0  0  0  0  0  0  0  0  0  0  0  0
  1  2  1  0
  2  3  1  0
  3  4  2  0
  4  5  1  0
  5  6  1  0
  6  7  2  0
  7  8  1  0
  8  9  2  0
  8 10  1  0
 10 11  2  0
 11 12  1  0
 12 13  1  0
 13 14  1  6
 14 15  2  0
 15 16  1  0
 16 17  2  0
 17 18  1  0
 17 19  1  0
 19 20  1  0
 20 21  1  0
 19 22  2  0
 13 23  1  0
 23 24  1  1
 24 25  2  0
 24 26  1  0
 26 27  2  0
 27 28  1  0
 27 29  1  0
 29 30  2  0
 30 31  1  0
 31 32  2  0
 32 33  1  0
 33 34  2  0
 34 35  1  0
 34 36  1  0
 36 37  1  0
 37 38  1  0
 36 39  2  0
 23 40  1  0
 40 41  2  0
 41 42  1  0
 42 43  2  0
 43 44  1  0
 44 45  2  0
 45 46  1  0
 45 47  1  0
 47 48  1  0
 48 49  1  0
 47 50  2  0
  5 51  2  0
 51 52  1  0
 52 53  2  0
 53 54  1  0
 53  3  1  0
 40 11  1  0
 50 42  1  0
 22 14  1  0
 39 31  1  0
M  END
>  <zinc_id>  (1) 
ZINC000150368132

>  <smiles>  (1) 
COc1cc(/C=C/C(=O)/C=C2\O[C@@H](c3ccc(O)c(OC)c3)[C@H](C(=O)/C=C(O)/C=C/c3ccc(O)c(OC)c3)\C2=C/c2ccc(O)c(OC)c2)ccc1O

$$$$
