REMARK  Name = 
REMARK  13 active torsions:
REMARK  status: ('A' for Active; 'I' for Inactive)
REMARK    1  A    between atoms: O_2  and  C_3
REMARK    2  A    between atoms: C_5  and  C_6
REMARK    3  A    between atoms: C_7  and  C_8
REMARK    4  A    between atoms: C_8  and  C_10
REMARK    5  A    between atoms: C_13  and  C_14
REMARK    6  A    between atoms: C_19  and  O_20
REMARK    7  A    between atoms: C_23  and  C_24
REMARK    8  A    between atoms: C_24  and  C_26
REMARK    9  A    between atoms: C_27  and  C_29
REMARK   10  A    between atoms: C_30  and  C_31
REMARK   11  A    between atoms: C_36  and  O_37
REMARK   12  A    between atoms: C_41  and  C_42
REMARK   13  A    between atoms: C_47  and  O_48
REMARK                            x       y       z     vdW  Elec       q    Type
REMARK                         _______ _______ _______ _____ _____    ______ ____
ROOT
ATOM     10  C   UNL     1       2.231   1.637  -0.875  0.00  0.00    +0.000 C 
ATOM     11  C   UNL     1       1.066   0.978  -0.885  0.00  0.00    +0.000 C 
ATOM     12  O   UNL     1      -0.092   1.677  -1.032  0.00  0.00    +0.000 OA
ATOM     13  C   UNL     1      -1.226   0.652  -0.961  0.00  0.00    +0.000 C 
ATOM     23  C   UNL     1      -0.504  -0.045   0.447  0.00  0.00    +0.000 C 
ATOM     40  C   UNL     1       0.833  -0.388  -0.342  0.00  0.00    +0.000 C 
ATOM     41  C   UNL     1       1.640  -0.865   0.624  0.00  0.00    +0.000 C 
ENDROOT
BRANCH  13  14
ATOM     14  C   UNL     1      -0.546  -0.293  -2.063  0.00  0.00    +0.000 A 
ATOM     15  C   UNL     1      -0.471   0.381  -3.284  0.00  0.00    +0.000 A 
ATOM     16  C   UNL     1      -0.529  -0.321  -4.485  0.00  0.00    +0.000 A 
ATOM     17  C   UNL     1      -0.272  -1.687  -4.433  0.00  0.00    +0.000 A 
ATOM     18  O   UNL     1      -0.144  -2.482  -5.553  0.00  0.00    +0.000 OA
ATOM     19  C   UNL     1      -0.374  -2.328  -3.204  0.00  0.00    +0.000 A 
ATOM     22  C   UNL     1      -0.999  -1.578  -2.220  0.00  0.00    +0.000 A 
BRANCH  19  20
ATOM     20  O   UNL     1       0.205  -3.579  -2.968  0.00  0.00    +0.000 OA
ATOM     21  C   UNL     1       1.543  -3.709  -2.489  0.00  0.00    +0.000 C 
ENDBRANCH  19  20
ENDBRANCH  13  14
BRANCH  41  42
ATOM     42  C   UNL     1       1.717  -2.303   0.417  0.00  0.00    +0.000 A 
ATOM     43  C   UNL     1       2.722  -2.504  -0.553  0.00  0.00    +0.000 A 
ATOM     44  C   UNL     1       3.207  -3.737  -0.885  0.00  0.00    +0.000 A 
ATOM     45  C   UNL     1       2.591  -4.797  -0.263  0.00  0.00    +0.000 A 
ATOM     46  O   UNL     1       2.453  -6.025  -0.920  0.00  0.00    +0.000 OA
ATOM     47  C   UNL     1       1.984  -4.548   0.964  0.00  0.00    +0.000 A 
ATOM     50  C   UNL     1       1.993  -3.234   1.428  0.00  0.00    +0.000 A 
BRANCH  47  48
ATOM     48  O   UNL     1       1.615  -5.639   1.711  0.00  0.00    +0.000 OA
ATOM     49  C   UNL     1       1.336  -6.853   1.016  0.00  0.00    +0.000 C 
ENDBRANCH  47  48
ENDBRANCH  41  42
BRANCH  10   8
ATOM      8  C   UNL     1       2.566   2.675  -1.821  0.00  0.00    +0.000 C 
ATOM      9  O   UNL     1       2.744   2.219  -2.998  0.00  0.00    +0.000 OA
BRANCH   8   7
ATOM      6  C   UNL     1       3.770   4.249  -0.342  0.00  0.00    +0.000 C 
ATOM      7  C   UNL     1       3.653   3.598  -1.454  0.00  0.00    +0.000 C 
BRANCH   6   5
ATOM      3  C   UNL     1       6.082   3.254   2.341  0.00  0.00    +0.000 A 
ATOM      4  C   UNL     1       4.941   3.575   1.645  0.00  0.00    +0.000 A 
ATOM      5  C   UNL     1       4.962   4.347   0.490  0.00  0.00    +0.000 A 
ATOM     51  C   UNL     1       6.158   4.870   0.104  0.00  0.00    +0.000 A 
ATOM     52  C   UNL     1       7.296   4.624   0.864  0.00  0.00    +0.000 A 
ATOM     53  C   UNL     1       7.312   3.680   1.881  0.00  0.00    +0.000 A 
ATOM     54  O   UNL     1       8.472   2.981   2.227  0.00  0.00    +0.000 OA
BRANCH   3   2
ATOM      1  C   UNL     1       5.821   1.970   4.084  0.00  0.00    +0.000 C 
ATOM      2  O   UNL     1       6.044   2.466   3.471  0.00  0.00    +0.000 OA
ENDBRANCH   3   2
ENDBRANCH   6   5
ENDBRANCH   8   7
ENDBRANCH  10   8
BRANCH  23  24
ATOM     24  C   UNL     1      -1.368  -1.385   0.314  0.00  0.00    +0.000 C 
ATOM     25  O   UNL     1      -1.204  -2.219   1.262  0.00  0.00    +0.000 OA
BRANCH  24  26
ATOM     26  C   UNL     1      -2.772  -0.913   0.409  0.00  0.00    +0.000 C 
ATOM     27  C   UNL     1      -3.781  -1.578   0.871  0.00  0.00    +0.000 C 
ATOM     28  O   UNL     1      -3.632  -2.964   0.868  0.00  0.00    +0.000 OA
BRANCH  27  29
ATOM     29  C   UNL     1      -4.988  -0.915   1.392  0.00  0.00    +0.000 C 
ATOM     30  C   UNL     1      -4.882   0.006   2.352  0.00  0.00    +0.000 C 
BRANCH  30  31
ATOM     31  C   UNL     1      -5.805   1.151   2.319  0.00  0.00    +0.000 A 
ATOM     32  C   UNL     1      -5.484   2.319   1.636  0.00  0.00    +0.000 A 
ATOM     33  C   UNL     1      -6.440   2.953   0.853  0.00  0.00    +0.000 A 
ATOM     34  C   UNL     1      -7.753   2.501   0.813  0.00  0.00    +0.000 A 
ATOM     35  O   UNL     1      -8.454   2.563  -0.384  0.00  0.00    +0.000 OA
ATOM     36  C   UNL     1      -8.134   1.683   1.867  0.00  0.00    +0.000 A 
ATOM     39  C   UNL     1      -7.160   1.009   2.595  0.00  0.00    +0.000 A 
BRANCH  36  37
ATOM     37  O   UNL     1      -9.410   1.112   1.843  0.00  0.00    +0.000 OA
ATOM     38  C   UNL     1     -10.534   1.758   1.307  0.00  0.00    +0.000 C 
ENDBRANCH  36  37
ENDBRANCH  30  31
ENDBRANCH  27  29
ENDBRANCH  24  26
ENDBRANCH  23  24
TORSDOF 13
