
     RDKit          3D

 27 28  0  0  0  0  0  0  0  0999 V2000
   -5.7684   -0.6377    2.6379 C   0  0  0  0  0  0  0  0  0  0  0  0
   -6.3420   -0.9733    1.3809 O   0  0  0  0  0  0  0  0  0  0  0  0
   -5.8715   -0.4044    0.2096 C   0  0  0  0  0  0  0  0  0  0  0  0
   -4.8140   -0.9538   -0.4782 C   0  0  0  0  0  0  0  0  0  0  0  0
   -4.1771   -0.2632   -1.4973 C   0  0  0  0  0  0  0  0  0  0  0  0
   -2.7240   -0.3537   -1.6776 C   0  0  0  0  0  0  0  0  0  0  0  0
   -2.1014   -1.4480   -1.2641 C   0  0  0  0  0  0  0  0  0  0  0  0
   -0.6516   -1.4196   -1.0311 C   0  0  0  0  0  0  0  0  0  0  0  0
   -0.2123   -1.6613    0.1342 O   0  0  0  0  0  0  0  0  0  0  0  0
    0.1559   -0.4286   -1.8100 C   0  0  0  0  0  0  0  0  0  0  0  0
    0.5917    0.6528   -0.8718 C   0  0  0  0  0  0  0  0  0  0  0  0
   -0.2646    1.0065   -0.0061 O   0  0  0  0  0  0  0  0  0  0  0  0
    1.9763    0.5757   -0.4102 C   0  0  0  0  0  0  0  0  0  0  0  0
    2.9778    0.3263   -1.2324 C   0  0  0  0  0  0  0  0  0  0  0  0
    4.3294    0.2169   -0.6701 C   0  0  0  0  0  0  0  0  0  0  0  0
    5.0613   -0.9477   -0.8649 C   0  0  0  0  0  0  0  0  0  0  0  0
    6.2777   -1.0850   -0.2308 C   0  0  0  0  0  0  0  0  0  0  0  0
    6.4698   -0.4886    0.9991 C   0  0  0  0  0  0  0  0  0  0  0  0
    7.7845   -0.4637    1.4746 O   0  0  0  0  0  0  0  0  0  0  0  0
    5.7221    0.6497    1.2715 C   0  0  0  0  0  0  0  0  0  0  0  0
    5.7126    1.0855    2.5998 O   0  0  0  0  0  0  0  0  0  0  0  0
    5.3232    0.1880    3.6200 C   0  0  0  0  0  0  0  0  0  0  0  0
    4.6375    0.9548    0.4632 C   0  0  0  0  0  0  0  0  0  0  0  0
   -4.8425    0.8226   -2.0182 C   0  0  0  0  0  0  0  0  0  0  0  0
   -5.9712    1.3241   -1.3876 C   0  0  0  0  0  0  0  0  0  0  0  0
   -6.3972    0.8259   -0.1637 C   0  0  0  0  0  0  0  0  0  0  0  0
   -6.8819    1.6891    0.8235 O   0  0  0  0  0  0  0  0  0  0  0  0
  1  2  1  0
  2  3  1  0
  3  4  2  0
  4  5  1  0
  5  6  1  0
  6  7  2  0
  7  8  1  0
  8  9  2  0
  8 10  1  0
 10 11  1  0
 11 12  2  0
 11 13  1  0
 13 14  2  0
 14 15  1  0
 15 16  2  0
 16 17  1  0
 17 18  2  0
 18 19  1  0
 18 20  1  0
 20 21  1  0
 21 22  1  0
 20 23  2  0
  5 24  2  0
 24 25  1  0
 25 26  2  0
 26 27  1  0
 26  3  1  0
 23 15  1  0
M  END
>  <zinc_id>  (1) 
ZINC000000899824

>  <smiles>  (1) 
COc1cc(/C=C/C(=O)CC(=O)/C=C/c2ccc(O)c(OC)c2)ccc1O

$$$$
