
     RDKit          3D

 54 58  0  0  0  0  0  0  0  0999 V2000
    2.5320   -3.4882   -2.8307 C   0  0  0  0  0  0  0  0  0  0  0  0
    2.3158   -2.9599   -1.8008 O   0  0  0  0  0  0  0  0  0  0  0  0
    1.5460   -1.8030   -1.6634 C   0  0  0  0  0  0  0  0  0  0  0  0
    2.0836   -0.5374   -1.8874 C   0  0  0  0  0  0  0  0  0  0  0  0
    1.3606    0.5639   -1.4354 C   0  0  0  0  0  0  0  0  0  0  0  0
    2.0071    1.6406   -0.6665 C   0  0  0  0  0  0  0  0  0  0  0  0
    1.9010    1.7977    0.6222 C   0  0  0  0  0  0  0  0  0  0  0  0
    2.9776    1.6971    1.5978 C   0  0  0  0  0  0  0  0  0  0  0  0
    2.7373    1.0111    2.6378 O   0  0  0  0  0  0  0  0  0  0  0  0
    4.3894    1.7924    1.2240 C   0  0  0  0  0  0  0  0  0  0  0  0
    4.9450    2.9444    0.8912 C   0  0  0  0  0  0  0  0  0  0  0  0
    4.5057    4.0555    1.5982 O   0  0  0  0  0  0  0  0  0  0  0  0
    6.3654    2.9076    0.5223 C   0  0  0  0  0  0  0  0  0  0  0  0
    6.7633    2.4925   -0.6607 C   0  0  0  0  0  0  0  0  0  0  0  0
    8.0927    1.8898   -0.7814 C   0  0  0  0  0  0  0  0  0  0  0  0
    9.1199    2.7460   -1.1657 C   0  0  0  0  0  0  0  0  0  0  0  0
   10.4173    2.4436   -0.8028 C   0  0  0  0  0  0  0  0  0  0  0  0
   10.7620    1.2589   -0.1986 C   0  0  0  0  0  0  0  0  0  0  0  0
   11.8528    1.2821    0.6709 O   0  0  0  0  0  0  0  0  0  0  0  0
    9.7357    0.4071    0.1188 C   0  0  0  0  0  0  0  0  0  0  0  0
   10.0337   -0.6901    0.9244 O   0  0  0  0  0  0  0  0  0  0  0  0
   10.5644   -1.8861    0.3655 C   0  0  0  0  0  0  0  0  0  0  0  0
    8.4215    0.6679   -0.2512 C   0  0  0  0  0  0  0  0  0  0  0  0
   -0.0156    0.3697   -1.4261 C   0  0  0  0  0  0  0  0  0  0  0  0
   -0.5422   -0.8505   -1.2585 C   0  0  0  0  0  0  0  0  0  0  0  0
    0.2792   -1.9639   -1.1096 C   0  0  0  0  0  0  0  0  0  0  0  0
   -0.2544   -2.8813   -0.2368 O   0  0  0  0  0  0  0  0  0  0  0  0
   -1.1832   -2.0130    0.6695 C   0  0  2  0  0  0  0  0  0  0  0  0
   -2.2629   -3.2199    0.8665 C   0  0  0  0  0  0  0  0  0  0  0  0
   -2.9079   -3.2236    2.0693 C   0  0  0  0  0  0  0  0  0  0  0  0
   -4.0660   -3.9871    2.1699 C   0  0  0  0  0  0  0  0  0  0  0  0
   -4.3770   -4.8562    1.1300 C   0  0  0  0  0  0  0  0  0  0  0  0
   -5.2876   -5.8703    1.4275 O   0  0  0  0  0  0  0  0  0  0  0  0
   -3.5964   -4.8907   -0.0202 C   0  0  0  0  0  0  0  0  0  0  0  0
   -3.6698   -6.0251   -0.8095 O   0  0  0  0  0  0  0  0  0  0  0  0
   -2.5137   -6.7368   -1.1786 C   0  0  0  0  0  0  0  0  0  0  0  0
   -2.6045   -3.9356   -0.2225 C   0  0  0  0  0  0  0  0  0  0  0  0
   -1.9739   -1.3926   -0.7673 C   0  0  1  0  0  0  0  0  0  0  0  0
   -2.4273   -0.0356   -0.0025 C   0  0  0  0  0  0  0  0  0  0  0  0
   -2.3285    1.0022   -0.7308 O   0  0  0  0  0  0  0  0  0  0  0  0
   -3.7987   -0.2423    0.4994 C   0  0  0  0  0  0  0  0  0  0  0  0
   -4.7807   -0.6524   -0.2972 C   0  0  0  0  0  0  0  0  0  0  0  0
   -4.3706   -1.0691   -1.5683 O   0  0  0  0  0  0  0  0  0  0  0  0
   -6.1601   -0.2063   -0.1918 C   0  0  0  0  0  0  0  0  0  0  0  0
   -6.7493    0.1870    0.9068 C   0  0  0  0  0  0  0  0  0  0  0  0
   -7.5529    1.4151    0.9605 C   0  0  0  0  0  0  0  0  0  0  0  0
   -7.6285    2.0583    2.1892 C   0  0  0  0  0  0  0  0  0  0  0  0
   -7.6706    3.4450    2.2687 C   0  0  0  0  0  0  0  0  0  0  0  0
   -7.5742    4.2193    1.1180 C   0  0  0  0  0  0  0  0  0  0  0  0
   -6.8459    5.4161    1.1122 O   0  0  0  0  0  0  0  0  0  0  0  0
   -7.8832    3.5524   -0.0618 C   0  0  0  0  0  0  0  0  0  0  0  0
   -8.0929    4.3668   -1.1776 O   0  0  0  0  0  0  0  0  0  0  0  0
   -8.7524    5.6189   -1.0441 C   0  0  0  0  0  0  0  0  0  0  0  0
   -7.8385    2.1682   -0.1603 C   0  0  0  0  0  0  0  0  0  0  0  0
  1  2  1  0
  2  3  1  0
  3  4  2  0
  4  5  1  0
  5  6  1  0
  6  7  2  0
  7  8  1  0
  8  9  2  0
  8 10  1  0
 10 11  2  0
 11 12  1  0
 11 13  1  0
 13 14  2  0
 14 15  1  0
 15 16  2  0
 16 17  1  0
 17 18  2  0
 18 19  1  0
 18 20  1  0
 20 21  1  0
 21 22  1  0
 20 23  2  0
  5 24  2  0
 24 25  1  0
 25 26  2  0
 26 27  1  0
 27 28  1  0
 28 29  1  1
 29 30  2  0
 30 31  1  0
 31 32  2  0
 32 33  1  0
 32 34  1  0
 34 35  1  0
 35 36  1  0
 34 37  2  0
 28 38  1  0
 38 39  1  1
 39 40  2  0
 39 41  1  0
 41 42  2  0
 42 43  1  0
 42 44  1  0
 44 45  2  0
 45 46  1  0
 46 47  2  0
 47 48  1  0
 48 49  2  0
 49 50  1  0
 49 51  1  0
 51 52  1  0
 52 53  1  0
 51 54  2  0
 26  3  1  0
 37 29  1  0
 54 46  1  0
 23 15  1  0
 38 25  1  0
M  END
>  <zinc_id>  (1) 
ZINC000150368115

>  <smiles>  (1) 
COc1cc(/C=C/C(O)=C/C(=O)/C=C/c2cc(OC)c3c(c2)[C@H](C(=O)/C=C(O)/C=C/c2ccc(O)c(OC)c2)[C@@H](c2ccc(O)c(OC)c2)O3)ccc1O

$$$$
