
     RDKit          3D

 54 58  0  0  0  0  0  0  0  0999 V2000
   -6.6232    6.4049    1.8407 C   0  0  0  0  0  0  0  0  0  0  0  0
   -5.8990    6.3040    1.3537 O   0  0  0  0  0  0  0  0  0  0  0  0
   -4.8189    5.8466    0.6445 C   0  0  0  0  0  0  0  0  0  0  0  0
   -4.3446    4.5569    0.7693 C   0  0  0  0  0  0  0  0  0  0  0  0
   -3.1342    4.1935    0.1989 C   0  0  0  0  0  0  0  0  0  0  0  0
   -2.2175    3.2868    0.9011 C   0  0  0  0  0  0  0  0  0  0  0  0
   -2.5929    2.0746    1.2383 C   0  0  0  0  0  0  0  0  0  0  0  0
   -1.6017    1.0662    1.6401 C   0  0  0  0  0  0  0  0  0  0  0  0
   -0.9982    1.3347    2.6929 O   0  0  0  0  0  0  0  0  0  0  0  0
   -1.0749    0.2666    0.5426 C   0  0  0  0  0  0  0  0  0  0  0  0
   -1.7527   -0.1763   -0.4806 C   0  0  0  0  0  0  0  0  0  0  0  0
   -3.1566    0.1257   -0.6710 C   0  0  0  0  0  0  0  0  0  0  0  0
   -4.2346   -0.4568   -0.8033 C   0  0  0  0  0  0  0  0  0  0  0  0
   -4.8609   -1.7068   -0.4868 C   0  0  0  0  0  0  0  0  0  0  0  0
   -4.8841   -2.7809   -1.3759 C   0  0  0  0  0  0  0  0  0  0  0  0
   -4.4094   -4.0094   -0.9231 C   0  0  0  0  0  0  0  0  0  0  0  0
   -4.6536   -4.3494    0.4024 C   0  0  0  0  0  0  0  0  0  0  0  0
   -4.7663   -5.7031    0.7129 O   0  0  0  0  0  0  0  0  0  0  0  0
   -5.1686   -3.3788    1.2539 C   0  0  0  0  0  0  0  0  0  0  0  0
   -5.9156   -3.7927    2.3626 O   0  0  0  0  0  0  0  0  0  0  0  0
   -7.2982   -3.4801    2.3246 C   0  0  0  0  0  0  0  0  0  0  0  0
   -5.1868   -2.0771    0.8148 C   0  0  0  0  0  0  0  0  0  0  0  0
   -0.8589   -0.8862   -1.2966 O   0  0  0  0  0  0  0  0  0  0  0  0
   -0.4480   -1.9099   -0.2338 C   0  0  1  0  0  0  0  0  0  0  0  0
    0.9106   -2.3197   -0.9976 C   0  0  0  0  0  0  0  0  0  0  0  0
    1.7285   -3.0179   -0.1169 C   0  0  0  0  0  0  0  0  0  0  0  0
    2.5421   -4.0371   -0.5945 C   0  0  0  0  0  0  0  0  0  0  0  0
    2.0461   -4.8436   -1.6110 C   0  0  0  0  0  0  0  0  0  0  0  0
    2.1355   -6.2396   -1.5467 O   0  0  0  0  0  0  0  0  0  0  0  0
    1.1982   -4.2147   -2.5161 C   0  0  0  0  0  0  0  0  0  0  0  0
    0.6213   -5.0788   -3.4576 O   0  0  0  0  0  0  0  0  0  0  0  0
   -0.6571   -5.6141   -3.1203 C   0  0  0  0  0  0  0  0  0  0  0  0
    0.6160   -3.0066   -2.1709 C   0  0  0  0  0  0  0  0  0  0  0  0
    0.2244   -0.6431    0.7126 C   0  0  1  0  0  0  0  0  0  0  0  0
    1.0794    0.0425   -0.4466 C   0  0  0  0  0  0  0  0  0  0  0  0
    0.6335    0.9417   -1.1409 O   0  0  0  0  0  0  0  0  0  0  0  0
    2.4915    0.1950   -0.0674 C   0  0  0  0  0  0  0  0  0  0  0  0
    2.8949    0.4028    1.1808 C   0  0  0  0  0  0  0  0  0  0  0  0
    1.9942   -0.0159    2.1678 O   0  0  0  0  0  0  0  0  0  0  0  0
    4.2697   -0.0499    1.4491 C   0  0  0  0  0  0  0  0  0  0  0  0
    5.2821    0.7447    1.6545 C   0  0  0  0  0  0  0  0  0  0  0  0
    6.5773    0.5536    1.0423 C   0  0  0  0  0  0  0  0  0  0  0  0
    7.5788   -0.2433    1.5611 C   0  0  0  0  0  0  0  0  0  0  0  0
    8.8841    0.0438    1.1786 C   0  0  0  0  0  0  0  0  0  0  0  0
    9.1755    0.9720    0.2077 C   0  0  0  0  0  0  0  0  0  0  0  0
   10.3322    1.7352    0.1804 O   0  0  0  0  0  0  0  0  0  0  0  0
    8.1030    1.4581   -0.5274 C   0  0  0  0  0  0  0  0  0  0  0  0
    8.3847    2.2024   -1.6511 O   0  0  0  0  0  0  0  0  0  0  0  0
    9.5219    2.0258   -2.4565 C   0  0  0  0  0  0  0  0  0  0  0  0
    6.8137    1.0433   -0.2366 C   0  0  0  0  0  0  0  0  0  0  0  0
   -2.5775    5.0627   -0.7089 C   0  0  0  0  0  0  0  0  0  0  0  0
   -3.0617    6.3491   -0.9100 C   0  0  0  0  0  0  0  0  0  0  0  0
   -4.2149    6.7314   -0.2413 C   0  0  0  0  0  0  0  0  0  0  0  0
   -4.6285    8.0669   -0.2385 O   0  0  0  0  0  0  0  0  0  0  0  0
  1  2  1  0
  2  3  1  0
  3  4  2  0
  4  5  1  0
  5  6  1  0
  6  7  2  0
  7  8  1  0
  8  9  2  0
  8 10  1  0
 10 11  2  0
 11 12  1  0
 12 13  2  0
 13 14  1  0
 14 15  2  0
 15 16  1  0
 16 17  2  0
 17 18  1  0
 17 19  1  0
 19 20  1  0
 20 21  1  0
 19 22  2  0
 11 23  1  0
 23 24  1  0
 24 25  1  6
 25 26  2  0
 26 27  1  0
 27 28  2  0
 28 29  1  0
 28 30  1  0
 30 31  1  0
 31 32  1  0
 30 33  2  0
 24 34  1  0
 34 35  1  6
 35 36  2  0
 35 37  1  0
 37 38  2  0
 38 39  1  0
 38 40  1  0
 40 41  2  0
 41 42  1  0
 42 43  2  0
 43 44  1  0
 44 45  2  0
 45 46  1  0
 45 47  1  0
 47 48  1  0
 48 49  1  0
 47 50  2  0
  5 51  2  0
 51 52  1  0
 52 53  2  0
 53 54  1  0
 53  3  1  0
 34 10  1  0
 50 42  1  0
 22 14  1  0
 33 25  1  0
M  END
>  <zinc_id>  (1) 
ZINC000150366575

>  <smiles>  (1) 
COc1cc(/C=C/C(=O)C2=C(/C=C/c3ccc(O)c(OC)c3)O[C@@H](c3ccc(O)c(OC)c3)[C@H]2C(=O)/C=C(O)/C=C/c2ccc(O)c(OC)c2)ccc1O

$$$$
