
     RDKit          3D

 54 58  0  0  0  0  0  0  0  0999 V2000
   -6.1222    5.8415    2.3413 C   0  0  0  0  0  0  0  0  0  0  0  0
   -5.6456    5.9063    1.5872 O   0  0  0  0  0  0  0  0  0  0  0  0
   -4.7287    5.6294    0.5872 C   0  0  0  0  0  0  0  0  0  0  0  0
   -4.4720    4.3473    0.1216 C   0  0  0  0  0  0  0  0  0  0  0  0
   -3.7248    4.1095   -1.0268 C   0  0  0  0  0  0  0  0  0  0  0  0
   -2.8355    2.9377   -1.0564 C   0  0  0  0  0  0  0  0  0  0  0  0
   -2.3901    2.3132    0.0011 C   0  0  0  0  0  0  0  0  0  0  0  0
   -0.9936    2.0512    0.3131 C   0  0  0  0  0  0  0  0  0  0  0  0
   -0.3780    3.0069    0.8830 O   0  0  0  0  0  0  0  0  0  0  0  0
   -0.4132    0.7357    0.4726 C   0  0  0  0  0  0  0  0  0  0  0  0
   -1.0671   -0.3581    0.8068 C   0  0  0  0  0  0  0  0  0  0  0  0
   -2.4640   -0.5464    1.2243 C   0  0  0  0  0  0  0  0  0  0  0  0
   -3.4255   -1.0378    0.5106 C   0  0  0  0  0  0  0  0  0  0  0  0
   -3.9457   -2.3828    0.4598 C   0  0  0  0  0  0  0  0  0  0  0  0
   -3.6649   -3.2075   -0.6269 C   0  0  0  0  0  0  0  0  0  0  0  0
   -3.9034   -4.5750   -0.5596 C   0  0  0  0  0  0  0  0  0  0  0  0
   -4.7839   -4.9672    0.4399 C   0  0  0  0  0  0  0  0  0  0  0  0
   -5.0809   -6.2940    0.6494 O   0  0  0  0  0  0  0  0  0  0  0  0
   -5.4240   -4.0308    1.2347 C   0  0  0  0  0  0  0  0  0  0  0  0
   -6.2381   -4.4509    2.2824 O   0  0  0  0  0  0  0  0  0  0  0  0
   -7.3914   -3.6495    2.5160 C   0  0  0  0  0  0  0  0  0  0  0  0
   -5.1490   -2.6818    1.0875 C   0  0  0  0  0  0  0  0  0  0  0  0
   -0.0418   -1.0348    1.3785 O   0  0  0  0  0  0  0  0  0  0  0  0
    1.0742   -1.1717    0.3115 C   0  0  1  0  0  0  0  0  0  0  0  0
    0.2671   -2.4078   -0.4107 C   0  0  0  0  0  0  0  0  0  0  0  0
    0.0982   -3.4816    0.4630 C   0  0  0  0  0  0  0  0  0  0  0  0
   -0.2177   -4.7439    0.0198 C   0  0  0  0  0  0  0  0  0  0  0  0
   -0.0261   -4.9902   -1.3328 C   0  0  0  0  0  0  0  0  0  0  0  0
   -0.6240   -6.1505   -1.8364 O   0  0  0  0  0  0  0  0  0  0  0  0
    0.3236   -3.9472   -2.1833 C   0  0  0  0  0  0  0  0  0  0  0  0
    0.1278   -4.1119   -3.5581 O   0  0  0  0  0  0  0  0  0  0  0  0
   -0.6740   -5.1648   -4.0213 C   0  0  0  0  0  0  0  0  0  0  0  0
    0.7638   -2.7407   -1.6486 C   0  0  0  0  0  0  0  0  0  0  0  0
    0.3496    0.0104   -0.7545 C   0  0  2  0  0  0  0  0  0  0  0  0
    1.5755    1.0584   -0.6600 C   0  0  0  0  0  0  0  0  0  0  0  0
    1.2611    2.0799   -1.3025 O   0  0  0  0  0  0  0  0  0  0  0  0
    2.8716    0.5912   -0.3347 C   0  0  0  0  0  0  0  0  0  0  0  0
    3.2618    0.7432    0.9333 C   0  0  0  0  0  0  0  0  0  0  0  0
    2.6951    1.7927    1.6568 O   0  0  0  0  0  0  0  0  0  0  0  0
    4.5132    0.2192    1.4380 C   0  0  0  0  0  0  0  0  0  0  0  0
    5.3930   -0.4428    0.7300 C   0  0  0  0  0  0  0  0  0  0  0  0
    6.8075   -0.0647    0.6087 C   0  0  0  0  0  0  0  0  0  0  0  0
    7.7534   -0.5237    1.4872 C   0  0  0  0  0  0  0  0  0  0  0  0
    9.0202    0.0386    1.3627 C   0  0  0  0  0  0  0  0  0  0  0  0
    9.2739    1.0604    0.4560 C   0  0  0  0  0  0  0  0  0  0  0  0
   10.4243    1.8074    0.5564 O   0  0  0  0  0  0  0  0  0  0  0  0
    8.2743    1.4937   -0.4083 C   0  0  0  0  0  0  0  0  0  0  0  0
    8.5678    2.3397   -1.4815 O   0  0  0  0  0  0  0  0  0  0  0  0
    9.5184    1.8597   -2.4012 C   0  0  0  0  0  0  0  0  0  0  0  0
    7.1684    0.6914   -0.5012 C   0  0  0  0  0  0  0  0  0  0  0  0
   -3.2085    5.2473   -1.6388 C   0  0  0  0  0  0  0  0  0  0  0  0
   -3.3732    6.5124   -1.1375 C   0  0  0  0  0  0  0  0  0  0  0  0
   -4.2673    6.7217   -0.1303 C   0  0  0  0  0  0  0  0  0  0  0  0
   -4.7094    8.0121    0.0912 O   0  0  0  0  0  0  0  0  0  0  0  0
  1  2  1  0
  2  3  1  0
  3  4  2  0
  4  5  1  0
  5  6  1  0
  6  7  2  0
  7  8  1  0
  8  9  2  0
  8 10  1  0
 10 11  2  0
 11 12  1  0
 12 13  2  0
 13 14  1  0
 14 15  2  0
 15 16  1  0
 16 17  2  0
 17 18  1  0
 17 19  1  0
 19 20  1  0
 20 21  1  0
 19 22  2  0
 11 23  1  0
 23 24  1  0
 24 25  1  6
 25 26  2  0
 26 27  1  0
 27 28  2  0
 28 29  1  0
 28 30  1  0
 30 31  1  0
 31 32  1  0
 30 33  2  0
 24 34  1  0
 34 35  1  1
 35 36  2  0
 35 37  1  0
 37 38  2  0
 38 39  1  0
 38 40  1  0
 40 41  2  0
 41 42  1  0
 42 43  2  0
 43 44  1  0
 44 45  2  0
 45 46  1  0
 45 47  1  0
 47 48  1  0
 48 49  1  0
 47 50  2  0
  5 51  2  0
 51 52  1  0
 52 53  2  0
 53 54  1  0
 53  3  1  0
 34 10  1  0
 50 42  1  0
 22 14  1  0
 33 25  1  0
M  END
>  <zinc_id>  (1) 
ZINC000150366578

>  <smiles>  (1) 
COc1cc(/C=C/C(=O)C2=C(/C=C/c3ccc(O)c(OC)c3)O[C@@H](c3ccc(O)c(OC)c3)[C@@H]2C(=O)/C=C(O)/C=C/c2ccc(O)c(OC)c2)ccc1O

$$$$
