REMARK  Name = 
REMARK  8 active torsions:
REMARK  status: ('A' for Active; 'I' for Inactive)
REMARK    1  A    between atoms: O_2  and  C_3
REMARK    2  A    between atoms: C_5  and  C_6
REMARK    3  A    between atoms: C_7  and  C_8
REMARK    4  A    between atoms: C_8  and  C_10
REMARK    5  A    between atoms: C_10  and  C_11
REMARK    6  A    between atoms: C_11  and  C_13
REMARK    7  A    between atoms: C_14  and  C_15
REMARK    8  A    between atoms: C_20  and  O_21
REMARK                            x       y       z     vdW  Elec       q    Type
REMARK                         _______ _______ _______ _____ _____    ______ ____
ROOT
ATOM     10  C   UNL     1       0.156  -0.429  -1.810  0.00  0.00    +0.000 C 
ENDROOT
BRANCH  10   8
ATOM      8  C   UNL     1      -0.652  -1.420  -1.031  0.00  0.00    +0.000 C 
ATOM      9  O   UNL     1      -0.212  -1.661   0.134  0.00  0.00    +0.000 OA
BRANCH   8   7
ATOM      6  C   UNL     1      -2.724  -0.354  -1.678  0.00  0.00    +0.000 C 
ATOM      7  C   UNL     1      -2.101  -1.448  -1.264  0.00  0.00    +0.000 C 
BRANCH   6   5
ATOM      3  C   UNL     1      -5.872  -0.404   0.210  0.00  0.00    +0.000 A 
ATOM      4  C   UNL     1      -4.814  -0.954  -0.478  0.00  0.00    +0.000 A 
ATOM      5  C   UNL     1      -4.177  -0.263  -1.497  0.00  0.00    +0.000 A 
ATOM     24  C   UNL     1      -4.843   0.823  -2.018  0.00  0.00    +0.000 A 
ATOM     25  C   UNL     1      -5.971   1.324  -1.388  0.00  0.00    +0.000 A 
ATOM     26  C   UNL     1      -6.397   0.826  -0.164  0.00  0.00    +0.000 A 
ATOM     27  O   UNL     1      -6.882   1.689   0.824  0.00  0.00    +0.000 OA
BRANCH   3   2
ATOM      1  C   UNL     1      -5.768  -0.638   2.638  0.00  0.00    +0.000 C 
ATOM      2  O   UNL     1      -6.342  -0.973   1.381  0.00  0.00    +0.000 OA
ENDBRANCH   3   2
ENDBRANCH   6   5
ENDBRANCH   8   7
ENDBRANCH  10   8
BRANCH  10  11
ATOM     11  C   UNL     1       0.592   0.653  -0.872  0.00  0.00    +0.000 C 
ATOM     12  O   UNL     1      -0.265   1.006  -0.006  0.00  0.00    +0.000 OA
BRANCH  11  13
ATOM     13  C   UNL     1       1.976   0.576  -0.410  0.00  0.00    +0.000 C 
ATOM     14  C   UNL     1       2.978   0.326  -1.232  0.00  0.00    +0.000 C 
BRANCH  14  15
ATOM     15  C   UNL     1       4.329   0.217  -0.670  0.00  0.00    +0.000 A 
ATOM     16  C   UNL     1       5.061  -0.948  -0.865  0.00  0.00    +0.000 A 
ATOM     17  C   UNL     1       6.278  -1.085  -0.231  0.00  0.00    +0.000 A 
ATOM     18  C   UNL     1       6.470  -0.489   0.999  0.00  0.00    +0.000 A 
ATOM     19  O   UNL     1       7.785  -0.464   1.475  0.00  0.00    +0.000 OA
ATOM     20  C   UNL     1       5.722   0.650   1.272  0.00  0.00    +0.000 A 
ATOM     23  C   UNL     1       4.638   0.955   0.463  0.00  0.00    +0.000 A 
BRANCH  20  21
ATOM     21  O   UNL     1       5.713   1.085   2.600  0.00  0.00    +0.000 OA
ATOM     22  C   UNL     1       5.323   0.188   3.620  0.00  0.00    +0.000 C 
ENDBRANCH  20  21
ENDBRANCH  14  15
ENDBRANCH  11  13
ENDBRANCH  10  11
TORSDOF 8
