REMARK  Name = 
REMARK  14 active torsions:
REMARK  status: ('A' for Active; 'I' for Inactive)
REMARK    1  A    between atoms: O_2  and  C_3
REMARK    2  A    between atoms: C_5  and  C_6
REMARK    3  A    between atoms: C_7  and  C_8
REMARK    4  A    between atoms: C_8  and  C_10
REMARK    5  A    between atoms: C_11  and  C_13
REMARK    6  A    between atoms: C_14  and  C_15
REMARK    7  A    between atoms: C_20  and  O_21
REMARK    8  A    between atoms: C_28  and  C_29
REMARK    9  A    between atoms: C_34  and  O_35
REMARK   10  A    between atoms: C_38  and  C_39
REMARK   11  A    between atoms: C_39  and  C_41
REMARK   12  A    between atoms: C_42  and  C_44
REMARK   13  A    between atoms: C_45  and  C_46
REMARK   14  A    between atoms: C_51  and  O_52
REMARK                            x       y       z     vdW  Elec       q    Type
REMARK                         _______ _______ _______ _____ _____    ______ ____
ROOT
ATOM      3  C   UNL     1       1.546  -1.803  -1.663  0.00  0.00    +0.000 A 
ATOM      4  C   UNL     1       2.084  -0.537  -1.887  0.00  0.00    +0.000 A 
ATOM      5  C   UNL     1       1.361   0.564  -1.435  0.00  0.00    +0.000 A 
ATOM     24  C   UNL     1      -0.016   0.370  -1.426  0.00  0.00    +0.000 A 
ATOM     25  C   UNL     1      -0.542  -0.851  -1.258  0.00  0.00    +0.000 A 
ATOM     26  C   UNL     1       0.279  -1.964  -1.110  0.00  0.00    +0.000 A 
ATOM     27  O   UNL     1      -0.254  -2.881  -0.237  0.00  0.00    +0.000 OA
ATOM     28  C   UNL     1      -1.183  -2.013   0.669  0.00  0.00    +0.000 C 
ATOM     38  C   UNL     1      -1.974  -1.393  -0.767  0.00  0.00    +0.000 C 
ENDROOT
BRANCH  28  29
ATOM     29  C   UNL     1      -2.263  -3.220   0.867  0.00  0.00    +0.000 A 
ATOM     30  C   UNL     1      -2.908  -3.224   2.069  0.00  0.00    +0.000 A 
ATOM     31  C   UNL     1      -4.066  -3.987   2.170  0.00  0.00    +0.000 A 
ATOM     32  C   UNL     1      -4.377  -4.856   1.130  0.00  0.00    +0.000 A 
ATOM     33  O   UNL     1      -5.288  -5.870   1.427  0.00  0.00    +0.000 OA
ATOM     34  C   UNL     1      -3.596  -4.891  -0.020  0.00  0.00    +0.000 A 
ATOM     37  C   UNL     1      -2.604  -3.936  -0.223  0.00  0.00    +0.000 A 
BRANCH  34  35
ATOM     35  O   UNL     1      -3.670  -6.025  -0.809  0.00  0.00    +0.000 OA
ATOM     36  C   UNL     1      -2.514  -6.737  -1.179  0.00  0.00    +0.000 C 
ENDBRANCH  34  35
ENDBRANCH  28  29
BRANCH   3   2
ATOM      1  C   UNL     1       2.532  -3.488  -2.831  0.00  0.00    +0.000 C 
ATOM      2  O   UNL     1       2.316  -2.960  -1.801  0.00  0.00    +0.000 OA
ENDBRANCH   3   2
BRANCH   5   6
ATOM      6  C   UNL     1       2.007   1.641  -0.666  0.00  0.00    +0.000 C 
ATOM      7  C   UNL     1       1.901   1.798   0.622  0.00  0.00    +0.000 C 
BRANCH   7   8
ATOM      8  C   UNL     1       2.978   1.697   1.598  0.00  0.00    +0.000 C 
ATOM      9  O   UNL     1       2.737   1.011   2.638  0.00  0.00    +0.000 OA
BRANCH   8  10
ATOM     10  C   UNL     1       4.389   1.792   1.224  0.00  0.00    +0.000 C 
ATOM     11  C   UNL     1       4.945   2.944   0.891  0.00  0.00    +0.000 C 
ATOM     12  O   UNL     1       4.506   4.056   1.598  0.00  0.00    +0.000 OA
BRANCH  11  13
ATOM     13  C   UNL     1       6.365   2.908   0.522  0.00  0.00    +0.000 C 
ATOM     14  C   UNL     1       6.763   2.493  -0.661  0.00  0.00    +0.000 C 
BRANCH  14  15
ATOM     15  C   UNL     1       8.093   1.890  -0.781  0.00  0.00    +0.000 A 
ATOM     16  C   UNL     1       9.120   2.746  -1.166  0.00  0.00    +0.000 A 
ATOM     17  C   UNL     1      10.417   2.444  -0.803  0.00  0.00    +0.000 A 
ATOM     18  C   UNL     1      10.762   1.259  -0.199  0.00  0.00    +0.000 A 
ATOM     19  O   UNL     1      11.853   1.282   0.671  0.00  0.00    +0.000 OA
ATOM     20  C   UNL     1       9.736   0.407   0.119  0.00  0.00    +0.000 A 
ATOM     23  C   UNL     1       8.421   0.668  -0.251  0.00  0.00    +0.000 A 
BRANCH  20  21
ATOM     21  O   UNL     1      10.034  -0.690   0.924  0.00  0.00    +0.000 OA
ATOM     22  C   UNL     1      10.564  -1.886   0.365  0.00  0.00    +0.000 C 
ENDBRANCH  20  21
ENDBRANCH  14  15
ENDBRANCH  11  13
ENDBRANCH   8  10
ENDBRANCH   7   8
ENDBRANCH   5   6
BRANCH  38  39
ATOM     39  C   UNL     1      -2.427  -0.036  -0.003  0.00  0.00    +0.000 C 
ATOM     40  O   UNL     1      -2.329   1.002  -0.731  0.00  0.00    +0.000 OA
BRANCH  39  41
ATOM     41  C   UNL     1      -3.799  -0.242   0.499  0.00  0.00    +0.000 C 
ATOM     42  C   UNL     1      -4.781  -0.652  -0.297  0.00  0.00    +0.000 C 
ATOM     43  O   UNL     1      -4.371  -1.069  -1.568  0.00  0.00    +0.000 OA
BRANCH  42  44
ATOM     44  C   UNL     1      -6.160  -0.206  -0.192  0.00  0.00    +0.000 C 
ATOM     45  C   UNL     1      -6.749   0.187   0.907  0.00  0.00    +0.000 C 
BRANCH  45  46
ATOM     46  C   UNL     1      -7.553   1.415   0.961  0.00  0.00    +0.000 A 
ATOM     47  C   UNL     1      -7.628   2.058   2.189  0.00  0.00    +0.000 A 
ATOM     48  C   UNL     1      -7.671   3.445   2.269  0.00  0.00    +0.000 A 
ATOM     49  C   UNL     1      -7.574   4.219   1.118  0.00  0.00    +0.000 A 
ATOM     50  O   UNL     1      -6.846   5.416   1.112  0.00  0.00    +0.000 OA
ATOM     51  C   UNL     1      -7.883   3.552  -0.062  0.00  0.00    +0.000 A 
ATOM     54  C   UNL     1      -7.838   2.168  -0.160  0.00  0.00    +0.000 A 
BRANCH  51  52
ATOM     52  O   UNL     1      -8.093   4.367  -1.178  0.00  0.00    +0.000 OA
ATOM     53  C   UNL     1      -8.752   5.619  -1.044  0.00  0.00    +0.000 C 
ENDBRANCH  51  52
ENDBRANCH  45  46
ENDBRANCH  42  44
ENDBRANCH  39  41
ENDBRANCH  38  39
TORSDOF 14
