REMARK  Name = 
REMARK  13 active torsions:
REMARK  status: ('A' for Active; 'I' for Inactive)
REMARK    1  A    between atoms: O_2  and  C_3
REMARK    2  A    between atoms: C_5  and  C_6
REMARK    3  A    between atoms: C_7  and  C_8
REMARK    4  A    between atoms: C_8  and  C_10
REMARK    5  A    between atoms: C_13  and  C_14
REMARK    6  A    between atoms: C_19  and  O_20
REMARK    7  A    between atoms: C_23  and  C_24
REMARK    8  A    between atoms: C_24  and  C_26
REMARK    9  A    between atoms: C_27  and  C_29
REMARK   10  A    between atoms: C_30  and  C_31
REMARK   11  A    between atoms: C_36  and  O_37
REMARK   12  A    between atoms: C_41  and  C_42
REMARK   13  A    between atoms: C_47  and  O_48
REMARK                            x       y       z     vdW  Elec       q    Type
REMARK                         _______ _______ _______ _____ _____    ______ ____
ROOT
ATOM     10  C   UNL     1      -1.672   1.393   1.577  0.00  0.00    +0.000 C 
ATOM     11  C   UNL     1      -0.832   0.612   0.893  0.00  0.00    +0.000 C 
ATOM     12  O   UNL     1      -0.036  -0.216   1.449  0.00  0.00    +0.000 OA
ATOM     13  C   UNL     1       0.705  -1.171   0.546  0.00  0.00    +0.000 C 
ATOM     23  C   UNL     1       0.477  -0.342  -0.932  0.00  0.00    +0.000 C 
ATOM     40  C   UNL     1      -0.708   0.590  -0.472  0.00  0.00    +0.000 C 
ATOM     41  C   UNL     1      -1.361   1.198  -1.423  0.00  0.00    +0.000 C 
ENDROOT
BRANCH  13  14
ATOM     14  C   UNL     1      -0.545  -2.159   0.334  0.00  0.00    +0.000 A 
ATOM     15  C   UNL     1      -1.756  -1.762   0.032  0.00  0.00    +0.000 A 
ATOM     16  C   UNL     1      -2.696  -2.645  -0.431  0.00  0.00    +0.000 A 
ATOM     17  C   UNL     1      -2.222  -3.780  -1.074  0.00  0.00    +0.000 A 
ATOM     18  O   UNL     1      -2.992  -4.458  -2.020  0.00  0.00    +0.000 OA
ATOM     19  C   UNL     1      -0.947  -4.246  -0.791  0.00  0.00    +0.000 A 
ATOM     22  C   UNL     1      -0.111  -3.417  -0.054  0.00  0.00    +0.000 A 
BRANCH  19  20
ATOM     20  O   UNL     1      -0.721  -5.618  -0.882  0.00  0.00    +0.000 OA
ATOM     21  C   UNL     1       0.565  -6.191  -0.930  0.00  0.00    +0.000 C 
ENDBRANCH  19  20
ENDBRANCH  13  14
BRANCH  41  42
ATOM     42  C   UNL     1      -1.028   1.176  -2.827  0.00  0.00    +0.000 A 
ATOM     43  C   UNL     1      -1.179   2.318  -3.585  0.00  0.00    +0.000 A 
ATOM     44  C   UNL     1      -0.333   2.495  -4.673  0.00  0.00    +0.000 A 
ATOM     45  C   UNL     1       0.239   1.379  -5.249  0.00  0.00    +0.000 A 
ATOM     46  O   UNL     1       1.357   1.516  -6.078  0.00  0.00    +0.000 OA
ATOM     47  C   UNL     1      -0.145   0.126  -4.787  0.00  0.00    +0.000 A 
ATOM     50  C   UNL     1      -0.661   0.027  -3.505  0.00  0.00    +0.000 A 
BRANCH  47  48
ATOM     48  O   UNL     1       0.111  -0.960  -5.596  0.00  0.00    +0.000 OA
ATOM     49  C   UNL     1       0.079  -2.301  -5.180  0.00  0.00    +0.000 C 
ENDBRANCH  47  48
ENDBRANCH  41  42
BRANCH  10   8
ATOM      8  C   UNL     1      -2.317   0.907   2.807  0.00  0.00    +0.000 C 
ATOM      9  O   UNL     1      -1.957   1.318   3.927  0.00  0.00    +0.000 OA
BRANCH   8   7
ATOM      6  C   UNL     1      -4.385   0.596   1.528  0.00  0.00    +0.000 C 
ATOM      7  C   UNL     1      -3.691   0.435   2.637  0.00  0.00    +0.000 C 
BRANCH   6   5
ATOM      3  C   UNL     1      -7.357   2.472   2.529  0.00  0.00    +0.000 A 
ATOM      4  C   UNL     1      -6.308   2.180   1.666  0.00  0.00    +0.000 A 
ATOM      5  C   UNL     1      -5.826   0.880   1.561  0.00  0.00    +0.000 A 
ATOM     51  C   UNL     1      -6.742  -0.103   1.916  0.00  0.00    +0.000 A 
ATOM     52  C   UNL     1      -7.794   0.186   2.776  0.00  0.00    +0.000 A 
ATOM     53  C   UNL     1      -8.000   1.475   3.255  0.00  0.00    +0.000 A 
ATOM     54  O   UNL     1      -8.353   1.719   4.586  0.00  0.00    +0.000 OA
BRANCH   3   2
ATOM      1  C   UNL     1      -6.870   4.830   2.861  0.00  0.00    +0.000 C 
ATOM      2  O   UNL     1      -7.787   3.775   2.753  0.00  0.00    +0.000 OA
ENDBRANCH   3   2
ENDBRANCH   6   5
ENDBRANCH   8   7
ENDBRANCH  10   8
BRANCH  23  24
ATOM     24  C   UNL     1       1.592   0.742  -0.537  0.00  0.00    +0.000 C 
ATOM     25  O   UNL     1       1.472   1.859  -1.119  0.00  0.00    +0.000 OA
BRANCH  24  26
ATOM     26  C   UNL     1       2.890   0.109  -0.636  0.00  0.00    +0.000 C 
ATOM     27  C   UNL     1       3.804   0.382  -1.533  0.00  0.00    +0.000 C 
ATOM     28  O   UNL     1       3.590   1.501  -2.342  0.00  0.00    +0.000 OA
BRANCH  27  29
ATOM     29  C   UNL     1       5.202   0.132  -1.158  0.00  0.00    +0.000 C 
ATOM     30  C   UNL     1       5.583  -0.839  -0.369  0.00  0.00    +0.000 C 
BRANCH  30  31
ATOM     31  C   UNL     1       6.670  -0.728   0.613  0.00  0.00    +0.000 A 
ATOM     32  C   UNL     1       6.560  -1.606   1.687  0.00  0.00    +0.000 A 
ATOM     33  C   UNL     1       7.280  -1.416   2.838  0.00  0.00    +0.000 A 
ATOM     34  C   UNL     1       8.098  -0.318   2.932  0.00  0.00    +0.000 A 
ATOM     35  O   UNL     1       9.252  -0.350   3.721  0.00  0.00    +0.000 OA
ATOM     36  C   UNL     1       7.839   0.766   2.119  0.00  0.00    +0.000 A 
ATOM     39  C   UNL     1       7.142   0.536   0.943  0.00  0.00    +0.000 A 
BRANCH  36  37
ATOM     37  O   UNL     1       8.655   1.897   2.127  0.00  0.00    +0.000 OA
ATOM     38  C   UNL     1       8.171   3.097   1.570  0.00  0.00    +0.000 C 
ENDBRANCH  36  37
ENDBRANCH  30  31
ENDBRANCH  27  29
ENDBRANCH  24  26
ENDBRANCH  23  24
TORSDOF 13
