
     RDKit          3D

 54 58  0  0  0  0  0  0  0  0999 V2000
    5.8206    1.9698    4.0844 C   0  0  0  0  0  0  0  0  0  0  0  0
    6.0440    2.4662    3.4707 O   0  0  0  0  0  0  0  0  0  0  0  0
    6.0817    3.2536    2.3406 C   0  0  0  0  0  0  0  0  0  0  0  0
    4.9411    3.5752    1.6447 C   0  0  0  0  0  0  0  0  0  0  0  0
    4.9616    4.3474    0.4898 C   0  0  0  0  0  0  0  0  0  0  0  0
    3.7697    4.2487   -0.3417 C   0  0  0  0  0  0  0  0  0  0  0  0
    3.6528    3.5981   -1.4536 C   0  0  0  0  0  0  0  0  0  0  0  0
    2.5664    2.6752   -1.8213 C   0  0  0  0  0  0  0  0  0  0  0  0
    2.7442    2.2192   -2.9982 O   0  0  0  0  0  0  0  0  0  0  0  0
    2.2314    1.6374   -0.8748 C   0  0  0  0  0  0  0  0  0  0  0  0
    1.0660    0.9775   -0.8852 C   0  0  0  0  0  0  0  0  0  0  0  0
   -0.0919    1.6768   -1.0315 O   0  0  0  0  0  0  0  0  0  0  0  0
   -1.2264    0.6516   -0.9606 C   0  0  1  0  0  0  0  0  0  0  0  0
   -0.5461   -0.2928   -2.0627 C   0  0  0  0  0  0  0  0  0  0  0  0
   -0.4710    0.3810   -3.2838 C   0  0  0  0  0  0  0  0  0  0  0  0
   -0.5294   -0.3211   -4.4847 C   0  0  0  0  0  0  0  0  0  0  0  0
   -0.2718   -1.6870   -4.4330 C   0  0  0  0  0  0  0  0  0  0  0  0
   -0.1436   -2.4815   -5.5529 O   0  0  0  0  0  0  0  0  0  0  0  0
   -0.3736   -2.3283   -3.2043 C   0  0  0  0  0  0  0  0  0  0  0  0
    0.2055   -3.5794   -2.9680 O   0  0  0  0  0  0  0  0  0  0  0  0
    1.5434   -3.7088   -2.4893 C   0  0  0  0  0  0  0  0  0  0  0  0
   -0.9986   -1.5782   -2.2205 C   0  0  0  0  0  0  0  0  0  0  0  0
   -0.5038   -0.0454    0.4466 C   0  0  1  0  0  0  0  0  0  0  0  0
   -1.3679   -1.3853    0.3137 C   0  0  0  0  0  0  0  0  0  0  0  0
   -1.2039   -2.2187    1.2615 O   0  0  0  0  0  0  0  0  0  0  0  0
   -2.7720   -0.9131    0.4089 C   0  0  0  0  0  0  0  0  0  0  0  0
   -3.7815   -1.5778    0.8714 C   0  0  0  0  0  0  0  0  0  0  0  0
   -3.6322   -2.9641    0.8677 O   0  0  0  0  0  0  0  0  0  0  0  0
   -4.9877   -0.9154    1.3919 C   0  0  0  0  0  0  0  0  0  0  0  0
   -4.8824    0.0062    2.3521 C   0  0  0  0  0  0  0  0  0  0  0  0
   -5.8051    1.1513    2.3194 C   0  0  0  0  0  0  0  0  0  0  0  0
   -5.4836    2.3193    1.6359 C   0  0  0  0  0  0  0  0  0  0  0  0
   -6.4404    2.9526    0.8530 C   0  0  0  0  0  0  0  0  0  0  0  0
   -7.7534    2.5013    0.8134 C   0  0  0  0  0  0  0  0  0  0  0  0
   -8.4535    2.5628   -0.3844 O   0  0  0  0  0  0  0  0  0  0  0  0
   -8.1344    1.6829    1.8673 C   0  0  0  0  0  0  0  0  0  0  0  0
   -9.4102    1.1121    1.8429 O   0  0  0  0  0  0  0  0  0  0  0  0
  -10.5344    1.7578    1.3066 C   0  0  0  0  0  0  0  0  0  0  0  0
   -7.1600    1.0094    2.5954 C   0  0  0  0  0  0  0  0  0  0  0  0
    0.8330   -0.3878   -0.3420 C   0  0  0  0  0  0  0  0  0  0  0  0
    1.6399   -0.8654    0.6236 C   0  0  0  0  0  0  0  0  0  0  0  0
    1.7173   -2.3031    0.4173 C   0  0  0  0  0  0  0  0  0  0  0  0
    2.7221   -2.5039   -0.5528 C   0  0  0  0  0  0  0  0  0  0  0  0
    3.2068   -3.7372   -0.8851 C   0  0  0  0  0  0  0  0  0  0  0  0
    2.5912   -4.7966   -0.2632 C   0  0  0  0  0  0  0  0  0  0  0  0
    2.4531   -6.0246   -0.9199 O   0  0  0  0  0  0  0  0  0  0  0  0
    1.9840   -4.5478    0.9639 C   0  0  0  0  0  0  0  0  0  0  0  0
    1.6150   -5.6388    1.7109 O   0  0  0  0  0  0  0  0  0  0  0  0
    1.3359   -6.8533    1.0158 C   0  0  0  0  0  0  0  0  0  0  0  0
    1.9934   -3.2341    1.4282 C   0  0  0  0  0  0  0  0  0  0  0  0
    6.1584    4.8703    0.1040 C   0  0  0  0  0  0  0  0  0  0  0  0
    7.2961    4.6243    0.8639 C   0  0  0  0  0  0  0  0  0  0  0  0
    7.3121    3.6805    1.8813 C   0  0  0  0  0  0  0  0  0  0  0  0
    8.4721    2.9811    2.2271 O   0  0  0  0  0  0  0  0  0  0  0  0
  1  2  1  0
  2  3  1  0
  3  4  2  0
  4  5  1  0
  5  6  1  0
  6  7  2  0
  7  8  1  0
  8  9  2  0
  8 10  1  0
 10 11  2  0
 11 12  1  0
 12 13  1  0
 13 14  1  6
 14 15  2  0
 15 16  1  0
 16 17  2  0
 17 18  1  0
 17 19  1  0
 19 20  1  0
 20 21  1  0
 19 22  2  0
 13 23  1  0
 23 24  1  6
 24 25  2  0
 24 26  1  0
 26 27  2  0
 27 28  1  0
 27 29  1  0
 29 30  2  0
 30 31  1  0
 31 32  2  0
 32 33  1  0
 33 34  2  0
 34 35  1  0
 34 36  1  0
 36 37  1  0
 37 38  1  0
 36 39  2  0
 23 40  1  0
 40 41  2  0
 41 42  1  0
 42 43  2  0
 43 44  1  0
 44 45  2  0
 45 46  1  0
 45 47  1  0
 47 48  1  0
 48 49  1  0
 47 50  2  0
  5 51  2  0
 51 52  1  0
 52 53  2  0
 53 54  1  0
 53  3  1  0
 40 11  1  0
 50 42  1  0
 22 14  1  0
 39 31  1  0
M  END
>  <zinc_id>  (1) 
ZINC000150368128

>  <smiles>  (1) 
COc1cc(/C=C/C(=O)/C=C2\O[C@@H](c3ccc(O)c(OC)c3)[C@@H](C(=O)/C=C(O)/C=C/c3ccc(O)c(OC)c3)\C2=C/c2ccc(O)c(OC)c2)ccc1O

$$$$
