
     RDKit          3D

  9  8  0  0  0  0  0  0  0  0999 V2000
   -0.6527   -0.3898   -1.8890 N   0  0  0  0  0  0  0  0  0  0  0  0
   -0.4060   -0.5876   -0.3233 C   0  0  1  0  0  0  0  0  0  0  0  0
    0.5470    0.7793   -0.2543 C   0  0  0  0  0  0  0  0  0  0  0  0
    1.9213    0.1956   -0.3639 C   0  0  0  0  0  0  0  0  0  0  0  0
    2.2181   -0.4898   -1.3884 O   0  0  0  0  0  0  0  0  0  0  0  0
    2.6664   -0.1391    0.7713 O   0  0  0  0  0  0  0  0  0  0  0  0
   -1.7584    0.2583    0.0423 C   0  0  0  0  0  0  0  0  0  0  0  0
   -1.6424    0.9136    1.1168 O   0  0  0  0  0  0  0  0  0  0  0  0
   -2.8933   -0.5404   -0.1480 O   0  0  0  0  0  0  0  0  0  0  0  0
  2  1  1  6
  2  3  1  0
  3  4  1  0
  4  5  2  0
  4  6  1  0
  2  7  1  0
  7  8  2  0
  7  9  1  0
M  END
>  <zinc_id>  (1) 
ZINC000000895032

>  <smiles>  (1) 
N[C@@H](CC(=O)O)C(=O)O

$$$$
