
     RDKit          3D

 16 15  0  0  0  0  0  0  0  0999 V2000
   -3.2179    2.2063    0.4373 C   0  0  0  0  0  0  0  0  0  0  0  0
   -2.1535    1.5234   -0.3156 C   0  0  0  0  0  0  0  0  0  0  0  0
   -2.4985    0.8209   -1.5410 C   0  0  0  0  0  0  0  0  0  0  0  0
   -1.3813    0.4961    0.7395 C   0  0  2  0  0  0  0  0  0  0  0  0
   -0.1202    0.3984   -0.2340 N   0  0  0  0  0  0  0  0  0  0  0  0
    0.6253   -0.7810   -0.2022 C   0  0  0  0  0  0  0  0  0  0  0  0
   -0.0193   -1.7715   -0.4645 O   0  0  0  0  0  0  0  0  0  0  0  0
    1.8466   -0.8900    0.8694 C   0  0  1  0  0  0  0  0  0  0  0  0
    2.1538   -2.4270    0.5602 N   0  0  0  0  0  0  0  0  0  0  0  0
    2.9521   -0.4027   -0.2765 C   0  0  0  0  0  0  0  0  0  0  0  0
    3.1780    0.9659    0.2183 C   0  0  0  0  0  0  0  0  0  0  0  0
    2.6705    1.9245   -0.4324 O   0  0  0  0  0  0  0  0  0  0  0  0
    3.4710    1.2260    1.5308 O   0  0  0  0  0  0  0  0  0  0  0  0
   -2.1161   -0.8732    0.2115 C   0  0  0  0  0  0  0  0  0  0  0  0
   -3.3789   -0.6596    0.2111 O   0  0  0  0  0  0  0  0  0  0  0  0
   -2.0116   -1.7565    1.3206 O   0  0  0  0  0  0  0  0  0  0  0  0
  1  2  1  0
  2  3  1  0
  4  2  1  6
  4  5  1  0
  5  6  1  0
  6  7  2  0
  8  6  1  6
  8  9  1  0
  8 10  1  0
 10 11  1  0
 11 12  2  0
 11 13  1  0
  4 14  1  0
 14 15  2  0
 14 16  1  0
M  END
>  <zinc_id>  (1) 
ZINC000002384839

>  <smiles>  (1) 
CC(C)[C@H](NC(=O)[C@@H](N)CC(=O)O)C(=O)O

$$$$
