
     RDKit          3D

 18 17  0  0  0  0  0  0  0  0999 V2000
   -5.0880    1.7647   -0.4705 N   0  0  0  0  0  0  0  0  0  0  0  0
   -5.0959    1.5459   -0.1012 C   0  0  0  0  0  0  0  0  0  0  0  0
   -4.0643    1.1465    0.9550 C   0  0  0  0  0  0  0  0  0  0  0  0
   -2.9516    0.5219    0.1946 C   0  0  0  0  0  0  0  0  0  0  0  0
   -1.5682    0.8134    0.6453 C   0  0  0  0  0  0  0  0  0  0  0  0
   -0.8046   -0.6668    0.6359 C   0  0  2  0  0  0  0  0  0  0  0  0
    0.5260   -0.0489    0.0125 N   0  0  0  0  0  0  0  0  0  0  0  0
    1.3913   -1.1596   -0.2778 C   0  0  0  0  0  0  0  0  0  0  0  0
    0.9571   -1.8983   -1.2155 O   0  0  0  0  0  0  0  0  0  0  0  0
    2.8495   -0.5579   -0.6983 C   0  0  2  0  0  0  0  0  0  0  0  0
    3.5184   -2.0037   -0.6783 N   0  0  0  0  0  0  0  0  0  0  0  0
    3.2626   -0.2908    0.8898 C   0  0  0  0  0  0  0  0  0  0  0  0
    3.7962    1.1060    0.8861 C   0  0  0  0  0  0  0  0  0  0  0  0
    2.9400    2.0287    0.9232 O   0  0  0  0  0  0  0  0  0  0  0  0
    4.9727    1.3236    1.5876 O   0  0  0  0  0  0  0  0  0  0  0  0
   -1.3846   -1.0728   -0.8320 C   0  0  0  0  0  0  0  0  0  0  0  0
   -1.3808   -0.1997   -1.6924 O   0  0  0  0  0  0  0  0  0  0  0  0
   -1.8755   -2.3521   -0.9200 O   0  0  0  0  0  0  0  0  0  0  0  0
  1  2  1  0
  2  3  1  0
  3  4  1  0
  4  5  1  0
  6  5  1  6
  6  7  1  0
  7  8  1  0
  8  9  2  0
 10  8  1  1
 10 11  1  0
 10 12  1  0
 12 13  1  0
 13 14  2  0
 13 15  1  0
  6 16  1  0
 16 17  2  0
 16 18  1  0
M  END
>  <zinc_id>  (1) 
ZINC000004533725

>  <smiles>  (1) 
NCCCC[C@H](NC(=O)[C@H](N)CC(=O)O)C(=O)O

$$$$
