
     RDKit          3D

 18 17  0  0  0  0  0  0  0  0999 V2000
   -3.4964    2.9071   -0.2306 N   0  0  0  0  0  0  0  0  0  0  0  0
   -3.4596    1.5100   -0.2520 C   0  0  0  0  0  0  0  0  0  0  0  0
   -4.3400    0.8990    0.3835 O   0  0  0  0  0  0  0  0  0  0  0  0
   -2.1979    0.8856   -0.6608 C   0  0  0  0  0  0  0  0  0  0  0  0
   -2.1925   -0.6017   -0.4907 C   0  0  0  0  0  0  0  0  0  0  0  0
   -0.6636   -0.9002   -1.1170 C   0  0  1  0  0  0  0  0  0  0  0  0
    0.0002   -0.0544    0.0707 N   0  0  0  0  0  0  0  0  0  0  0  0
    0.8302   -0.6405    0.9633 C   0  0  0  0  0  0  0  0  0  0  0  0
    0.5127   -1.7684    1.3667 O   0  0  0  0  0  0  0  0  0  0  0  0
    2.4458   -0.3697    0.8715 C   0  0  2  0  0  0  0  0  0  0  0  0
    2.5653   -0.3232    2.4722 N   0  0  0  0  0  0  0  0  0  0  0  0
    2.2170    1.2868    0.8055 C   0  0  0  0  0  0  0  0  0  0  0  0
    3.0776    1.6874   -0.3522 C   0  0  0  0  0  0  0  0  0  0  0  0
    3.4135    0.9116   -1.2673 O   0  0  0  0  0  0  0  0  0  0  0  0
    3.2721    3.0359   -0.5374 O   0  0  0  0  0  0  0  0  0  0  0  0
   -0.5607   -2.3783   -0.3892 C   0  0  0  0  0  0  0  0  0  0  0  0
    0.3218   -2.9628   -1.1124 O   0  0  0  0  0  0  0  0  0  0  0  0
   -1.7457   -3.1243   -0.5239 O   0  0  0  0  0  0  0  0  0  0  0  0
  1  2  1  0
  2  3  2  0
  2  4  1  0
  4  5  1  0
  6  5  1  1
  6  7  1  0
  7  8  1  0
  8  9  2  0
 10  8  1  1
 10 11  1  0
 10 12  1  0
 12 13  1  0
 13 14  2  0
 13 15  1  0
  6 16  1  0
 16 17  2  0
 16 18  1  0
M  END
>  <zinc_id>  (1) 
ZINC000004533736

>  <smiles>  (1) 
NC(=O)CC[C@@H](NC(=O)[C@H](N)CC(=O)O)C(=O)O

$$$$
