
     RDKit          3D

 18 17  0  0  0  0  0  0  0  0999 V2000
   -4.3162    1.5847    0.8198 N   0  0  0  0  0  0  0  0  0  0  0  0
   -3.7177    0.2990    0.7399 C   0  0  0  0  0  0  0  0  0  0  0  0
   -4.3894   -0.4901    0.0083 O   0  0  0  0  0  0  0  0  0  0  0  0
   -2.2575    0.2292    0.8934 C   0  0  0  0  0  0  0  0  0  0  0  0
   -1.7385   -0.9272    1.6637 C   0  0  0  0  0  0  0  0  0  0  0  0
   -0.5592   -1.6272    0.6973 C   0  0  2  0  0  0  0  0  0  0  0  0
    0.1031   -0.1993    0.3741 N   0  0  0  0  0  0  0  0  0  0  0  0
    1.1618   -0.4467   -0.4869 C   0  0  0  0  0  0  0  0  0  0  0  0
    1.7639   -1.5250   -0.6699 O   0  0  0  0  0  0  0  0  0  0  0  0
    2.2155    0.7779   -0.7704 C   0  0  1  0  0  0  0  0  0  0  0  0
    1.0484    1.8824   -0.8589 N   0  0  0  0  0  0  0  0  0  0  0  0
    2.4347    1.0649    0.8687 C   0  0  0  0  0  0  0  0  0  0  0  0
    3.8629    1.5165    0.8188 C   0  0  0  0  0  0  0  0  0  0  0  0
    4.8008    0.7377    0.5182 O   0  0  0  0  0  0  0  0  0  0  0  0
    4.0498    2.8980    0.7090 O   0  0  0  0  0  0  0  0  0  0  0  0
   -1.5340   -1.5907   -0.6310 C   0  0  0  0  0  0  0  0  0  0  0  0
   -0.9264   -1.2680   -1.6826 O   0  0  0  0  0  0  0  0  0  0  0  0
   -2.0022   -2.9162   -0.7218 O   0  0  0  0  0  0  0  0  0  0  0  0
  1  2  1  0
  2  3  2  0
  2  4  1  0
  4  5  1  0
  6  5  1  1
  6  7  1  0
  7  8  1  0
  8  9  2  0
 10  8  1  1
 10 11  1  0
 10 12  1  0
 12 13  1  0
 13 14  2  0
 13 15  1  0
  6 16  1  0
 16 17  2  0
 16 18  1  0
M  END
>  <zinc_id>  (1) 
ZINC000002522620

>  <smiles>  (1) 
NC(=O)CC[C@H](NC(=O)[C@@H](N)CC(=O)O)C(=O)O

$$$$
