
     RDKit          3D

 13 12  0  0  0  0  0  0  0  0999 V2000
    0.9112   -1.7317    0.4732 N   0  0  0  0  0  0  0  0  0  0  0  0
    1.2464   -0.4562   -0.3926 C   0  0  2  0  0  0  0  0  0  0  0  0
    2.2336    0.1450    0.7787 C   0  0  0  0  0  0  0  0  0  0  0  0
    3.5579    0.0443    0.0932 C   0  0  0  0  0  0  0  0  0  0  0  0
    3.8270    1.0419   -0.6435 O   0  0  0  0  0  0  0  0  0  0  0  0
    3.8145   -1.1999   -0.4932 O   0  0  0  0  0  0  0  0  0  0  0  0
   -0.0137    0.3611    0.2009 C   0  0  0  0  0  0  0  0  0  0  0  0
    0.0985    1.6095    0.0527 O   0  0  0  0  0  0  0  0  0  0  0  0
   -1.2719   -0.2837    0.0780 N   0  0  0  0  0  0  0  0  0  0  0  0
   -2.3048    0.5337   -0.5382 C   0  0  0  0  0  0  0  0  0  0  0  0
   -3.6059    0.0528   -0.0534 C   0  0  0  0  0  0  0  0  0  0  0  0
   -3.9555   -1.1387   -0.0887 O   0  0  0  0  0  0  0  0  0  0  0  0
   -4.5372    1.0219    0.2613 O   0  0  0  0  0  0  0  0  0  0  0  0
  2  1  1  1
  2  3  1  0
  3  4  1  0
  4  5  2  0
  4  6  1  0
  2  7  1  0
  7  8  2  0
  7  9  1  0
  9 10  1  0
 10 11  1  0
 11 12  2  0
 11 13  1  0
M  END
>  <zinc_id>  (1) 
ZINC000001731777

>  <smiles>  (1) 
N[C@H](CC(=O)O)C(=O)NCC(=O)O

$$$$
