
     RDKit          3D

 16 15  0  0  0  0  0  0  0  0999 V2000
   -2.1474   -2.4322   -0.9798 C   0  0  0  0  0  0  0  0  0  0  0  0
   -2.7642   -1.4346   -0.0642 C   0  0  0  0  0  0  0  0  0  0  0  0
   -2.2395   -1.6910    1.2708 C   0  0  0  0  0  0  0  0  0  0  0  0
   -2.0541   -0.0573   -0.6979 C   0  0  2  0  0  0  0  0  0  0  0  0
   -0.8462   -0.0209    0.3626 N   0  0  0  0  0  0  0  0  0  0  0  0
    0.2916    0.6919   -0.0592 C   0  0  0  0  0  0  0  0  0  0  0  0
    0.1732    1.6069   -0.9190 O   0  0  0  0  0  0  0  0  0  0  0  0
    1.5880   -0.2496   -0.4286 C   0  0  2  0  0  0  0  0  0  0  0  0
    1.6445   -0.8318    1.0648 N   0  0  0  0  0  0  0  0  0  0  0  0
    2.6529    0.9794   -0.0298 C   0  0  0  0  0  0  0  0  0  0  0  0
    3.9226    0.2040   -0.1592 C   0  0  0  0  0  0  0  0  0  0  0  0
    4.1708   -0.7281    0.6576 O   0  0  0  0  0  0  0  0  0  0  0  0
    4.6975    0.2224   -1.3173 O   0  0  0  0  0  0  0  0  0  0  0  0
   -2.9938    0.9435    0.2047 C   0  0  0  0  0  0  0  0  0  0  0  0
   -3.0452    2.1141   -0.2870 O   0  0  0  0  0  0  0  0  0  0  0  0
   -3.0507    0.6833    1.5356 O   0  0  0  0  0  0  0  0  0  0  0  0
  1  2  1  0
  2  3  1  0
  4  2  1  1
  4  5  1  0
  5  6  1  0
  6  7  2  0
  8  6  1  1
  8  9  1  0
  8 10  1  0
 10 11  1  0
 11 12  2  0
 11 13  1  0
  4 14  1  0
 14 15  2  0
 14 16  1  0
M  END
>  <zinc_id>  (1) 
ZINC000017724854

>  <smiles>  (1) 
CC(C)[C@H](NC(=O)[C@H](N)CC(=O)O)C(=O)O

$$$$
