
     RDKit          3D

 18 17  0  0  0  0  0  0  0  0999 V2000
   -3.4151    1.3900   -0.8903 N   0  0  0  0  0  0  0  0  0  0  0  0
   -4.2791    0.1079   -0.4660 C   0  0  1  0  0  0  0  0  0  0  0  0
   -2.9051   -0.8358   -0.3280 C   0  0  0  0  0  0  0  0  0  0  0  0
   -2.2547   -0.7016   -1.6711 C   0  0  0  0  0  0  0  0  0  0  0  0
   -0.7914   -0.5934   -1.6464 C   0  0  0  0  0  0  0  0  0  0  0  0
   -0.2465   -0.1477   -2.7027 O   0  0  0  0  0  0  0  0  0  0  0  0
    0.0427   -0.7811   -0.5240 N   0  0  0  0  0  0  0  0  0  0  0  0
    1.2234    0.0117   -0.4363 C   0  0  0  0  0  0  0  0  0  0  0  0
    1.5288    0.9189   -1.2157 O   0  0  0  0  0  0  0  0  0  0  0  0
    2.4753   -0.7590    0.2877 C   0  0  1  0  0  0  0  0  0  0  0  0
    3.3603   -0.7708   -1.0501 N   0  0  0  0  0  0  0  0  0  0  0  0
    3.1625    0.6804    0.7891 C   0  0  0  0  0  0  0  0  0  0  0  0
    4.3935    0.2697    1.5009 C   0  0  0  0  0  0  0  0  0  0  0  0
    5.5149    0.4824    0.9761 O   0  0  0  0  0  0  0  0  0  0  0  0
    4.3681    0.0771    2.8771 O   0  0  0  0  0  0  0  0  0  0  0  0
   -4.2559    0.5121    1.1226 C   0  0  0  0  0  0  0  0  0  0  0  0
   -4.8728   -0.4034    1.7515 O   0  0  0  0  0  0  0  0  0  0  0  0
   -3.0488    0.9025    1.6256 O   0  0  0  0  0  0  0  0  0  0  0  0
  2  1  1  6
  2  3  1  0
  3  4  1  0
  4  5  1  0
  5  6  2  0
  5  7  1  0
  7  8  1  0
  8  9  2  0
 10  8  1  6
 10 11  1  0
 10 12  1  0
 12 13  1  0
 13 14  2  0
 13 15  1  0
  2 16  1  0
 16 17  2  0
 16 18  1  0
M  END
>  <zinc_id>  (1) 
ZINC000013514832

>  <smiles>  (1) 
N[C@@H](CCC(=O)NC(=O)[C@@H](N)CC(=O)O)C(=O)O

$$$$
