
     RDKit          3D

 16 15  0  0  0  0  0  0  0  0999 V2000
   -4.1406   -0.0389    1.5591 C   0  0  0  0  0  0  0  0  0  0  0  0
   -2.9122   -0.8646    1.2924 C   0  0  0  0  0  0  0  0  0  0  0  0
   -3.0256   -1.7568    0.0944 C   0  0  0  0  0  0  0  0  0  0  0  0
   -1.8510    0.3513    0.8397 C   0  0  1  0  0  0  0  0  0  0  0  0
   -0.8047   -0.7208    0.2525 N   0  0  0  0  0  0  0  0  0  0  0  0
    0.3444    0.0128   -0.1291 C   0  0  0  0  0  0  0  0  0  0  0  0
    0.3993    1.0468   -0.7685 O   0  0  0  0  0  0  0  0  0  0  0  0
    1.7528   -0.7841    0.1325 C   0  0  1  0  0  0  0  0  0  0  0  0
    2.1124   -0.7811   -1.4335 N   0  0  0  0  0  0  0  0  0  0  0  0
    2.6029    0.6398    0.3799 C   0  0  0  0  0  0  0  0  0  0  0  0
    3.9737    0.1069    0.1523 C   0  0  0  0  0  0  0  0  0  0  0  0
    4.6387    0.7262   -0.7212 O   0  0  0  0  0  0  0  0  0  0  0  0
    4.6081   -0.5741    1.1970 O   0  0  0  0  0  0  0  0  0  0  0  0
   -2.6329    0.6024   -0.5824 C   0  0  0  0  0  0  0  0  0  0  0  0
   -2.1884    0.0535   -1.5827 O   0  0  0  0  0  0  0  0  0  0  0  0
   -2.8769    1.9807   -0.6822 O   0  0  0  0  0  0  0  0  0  0  0  0
  1  2  1  0
  2  3  1  0
  4  2  1  1
  4  5  1  0
  5  6  1  0
  6  7  2  0
  8  6  1  6
  8  9  1  0
  8 10  1  0
 10 11  1  0
 11 12  2  0
 11 13  1  0
  4 14  1  0
 14 15  2  0
 14 16  1  0
M  END
>  <zinc_id>  (1) 
ZINC000008951863

>  <smiles>  (1) 
CC(C)[C@@H](NC(=O)[C@@H](N)CC(=O)O)C(=O)O

$$$$
