REMARK  Name = 
REMARK  8 active torsions:
REMARK  status: ('A' for Active; 'I' for Inactive)
REMARK    1  A    between atoms: CA_2  and  CB_3
REMARK    2  A    between atoms: CA_2  and  C_7
REMARK    3  A    between atoms: CB_3  and  CG_4
REMARK    4  A    between atoms: N_9  and  CA_10
REMARK    5  A    between atoms: CA_10  and  CB_11
REMARK    6  A    between atoms: CA_10  and  C_16
REMARK    7  A    between atoms: CB_11  and  CG_12
REMARK    8  A    between atoms: CG_12  and  CD_13
REMARK                            x       y       z     vdW  Elec       q    Type
REMARK                         _______ _______ _______ _____ _____    ______ ____
ROOT
ATOM      7  C   ASP A   1       1.004  -1.366  -0.413  0.00  0.00    +0.000 C 
ATOM      8  O   ASP A   1       0.873  -2.593  -0.688  0.00  0.00    +0.000 OA
ATOM      9  N   GLU A   2      -0.113  -0.582  -0.188  0.00  0.00    +0.000 NA
ENDROOT
BRANCH   7   2
ATOM      1  N   ASP A   1       3.295  -1.331  -0.136  0.00  0.00    +0.000 NA
ATOM      2  CA  ASP A   1       2.275  -0.678  -1.169  0.00  0.00    +0.000 C 
BRANCH   2   3
ATOM      3  CB  ASP A   1       2.124   0.723  -0.300  0.00  0.00    +0.000 C 
BRANCH   3   4
ATOM      4  CG  ASP A   1       3.420   1.093   0.244  0.00  0.00    +0.000 C 
ATOM      5  OD1 ASP A   1       3.508   2.359   0.390  0.00  0.00    +0.000 OA
ATOM      6  OD2 ASP A   1       3.793   0.479   1.452  0.00  0.00    +0.000 OA
ENDBRANCH   3   4
ENDBRANCH   2   3
ENDBRANCH   7   2
BRANCH   9  10
ATOM     10  CA  GLU A   2      -1.461  -0.974  -0.929  0.00  0.00    +0.000 C 
BRANCH  10  16
ATOM     16  C   GLU A   2      -1.817  -2.161   0.127  0.00  0.00    +0.000 C 
ATOM     17  O   GLU A   2      -1.580  -1.936   1.315  0.00  0.00    +0.000 OA
ATOM     18  OXT GLU A   2      -3.102  -2.595  -0.180  0.00  0.00    +0.000 OA
ENDBRANCH  10  16
BRANCH  10  11
ATOM     11  CB  GLU A   2      -2.321   0.155  -0.062  0.00  0.00    +0.000 C 
BRANCH  11  12
ATOM     12  CG  GLU A   2      -2.138   1.413  -0.880  0.00  0.00    +0.000 C 
BRANCH  12  13
ATOM     13  CD  GLU A   2      -2.539   2.543   0.015  0.00  0.00    +0.000 C 
ATOM     14  OE1 GLU A   2      -3.673   2.377   0.557  0.00  0.00    +0.000 OA
ATOM     15  OE2 GLU A   2      -1.547   3.072   0.845  0.00  0.00    +0.000 OA
ENDBRANCH  12  13
ENDBRANCH  11  12
ENDBRANCH  10  11
ENDBRANCH   9  10
TORSDOF 8
