
     RDKit          3D

 17 16  0  0  0  0  0  0  0  0999 V2000
    1.6305    2.4932    0.7222 N   0  0  0  0  0  0  0  0  0  0  0  0
    1.9360    0.9641    0.9967 C   0  0  2  0  0  0  0  0  0  0  0  0
    2.3994    0.7051   -0.5614 C   0  0  0  0  0  0  0  0  0  0  0  0
    3.4948   -0.3138   -0.4211 C   0  0  0  0  0  0  0  0  0  0  0  0
    4.0283   -0.5786    0.6685 O   0  0  0  0  0  0  0  0  0  0  0  0
    4.1654   -0.6821   -1.5914 O   0  0  0  0  0  0  0  0  0  0  0  0
    0.3984    0.5512    0.7793 C   0  0  0  0  0  0  0  0  0  0  0  0
   -0.1667    0.6801    1.9118 O   0  0  0  0  0  0  0  0  0  0  0  0
   -0.0363   -0.3012   -0.2145 N   0  0  0  0  0  0  0  0  0  0  0  0
   -1.0706   -1.3495    0.3613 C   0  0  1  0  0  0  0  0  0  0  0  0
   -1.9890   -0.1832    1.0650 C   0  0  0  0  0  0  0  0  0  0  0  0
   -2.4918    0.7111    0.0838 C   0  0  0  0  0  0  0  0  0  0  0  0
   -2.1157    1.0777   -1.0573 O   0  0  0  0  0  0  0  0  0  0  0  0
   -3.3919    1.6455    0.6076 O   0  0  0  0  0  0  0  0  0  0  0  0
   -1.9548   -1.4136   -0.9984 C   0  0  0  0  0  0  0  0  0  0  0  0
   -1.5604   -2.3432   -1.7729 O   0  0  0  0  0  0  0  0  0  0  0  0
   -3.2754   -1.6626   -0.5790 O   0  0  0  0  0  0  0  0  0  0  0  0
  2  1  1  6
  2  3  1  0
  3  4  1  0
  4  5  2  0
  4  6  1  0
  2  7  1  0
  7  8  2  0
  7  9  1  0
 10  9  1  6
 10 11  1  0
 11 12  1  0
 12 13  2  0
 12 14  1  0
 10 15  1  0
 15 16  2  0
 15 17  1  0
M  END
>  <zinc_id>  (1) 
ZINC000001575289

>  <smiles>  (1) 
N[C@H](CC(=O)O)C(=O)N[C@@H](CC(=O)O)C(=O)O

$$$$
