REMARK  Name = 
REMARK  7 active torsions:
REMARK  status: ('A' for Active; 'I' for Inactive)
REMARK    1  A    between atoms: CA_2  and  CB_3
REMARK    2  A    between atoms: CA_2  and  C_7
REMARK    3  A    between atoms: CB_3  and  CG_4
REMARK    4  A    between atoms: N_9  and  CA_10
REMARK    5  A    between atoms: CA_10  and  CB_11
REMARK    6  A    between atoms: CA_10  and  C_19
REMARK    7  A    between atoms: CB_11  and  CG_12
REMARK                            x       y       z     vdW  Elec       q    Type
REMARK                         _______ _______ _______ _____ _____    ______ ____
ROOT
ATOM     10  CA  TYR A   2      -0.137   0.098  -0.371  0.00  0.00    +0.000 C 
ENDROOT
BRANCH  10   9
ATOM      7  C   ASP A   1       2.144  -0.880  -0.117  0.00  0.00    +0.000 C 
ATOM      8  O   ASP A   1       1.841  -1.530  -1.142  0.00  0.00    +0.000 OA
ATOM      9  N   TYR A   2       1.235   0.075   0.464  0.00  0.00    +0.000 NA
BRANCH   7   2
ATOM      1  N   ASP A   1       3.913  -2.456  -0.009  0.00  0.00    +0.000 NA
ATOM      2  CA  ASP A   1       2.884  -1.796   1.033  0.00  0.00    +0.000 C 
BRANCH   2   3
ATOM      3  CB  ASP A   1       3.960  -0.566   1.392  0.00  0.00    +0.000 C 
BRANCH   3   4
ATOM      4  CG  ASP A   1       4.438  -0.081   0.088  0.00  0.00    +0.000 C 
ATOM      5  OD1 ASP A   1       5.470  -0.574  -0.461  0.00  0.00    +0.000 OA
ATOM      6  OD2 ASP A   1       3.917   1.036  -0.569  0.00  0.00    +0.000 OA
ENDBRANCH   3   4
ENDBRANCH   2   3
ENDBRANCH   7   2
ENDBRANCH  10   9
BRANCH  10  19
ATOM     19  C   TYR A   2       0.125   1.630  -0.898  0.00  0.00    +0.000 C 
ATOM     20  O   TYR A   2      -0.762   1.871  -1.774  0.00  0.00    +0.000 OA
ATOM     21  OXT TYR A   2       0.485   2.540   0.046  0.00  0.00    +0.000 OA
ENDBRANCH  10  19
BRANCH  10  11
ATOM     11  CB  TYR A   2      -1.028   0.623   0.948  0.00  0.00    +0.000 C 
BRANCH  11  12
ATOM     12  CG  TYR A   2      -2.399   0.447   0.373  0.00  0.00    +0.000 A 
ATOM     13  CD1 TYR A   2      -2.697  -0.646  -0.432  0.00  0.00    +0.000 A 
ATOM     14  CE1 TYR A   2      -3.980  -0.865  -0.905  0.00  0.00    +0.000 A 
ATOM     15  CZ  TYR A   2      -5.030  -0.265  -0.233  0.00  0.00    +0.000 A 
ATOM     16  OH  TYR A   2      -6.238  -0.924  -0.002  0.00  0.00    +0.000 OA
ATOM     17  CE2 TYR A   2      -4.720   0.911   0.403  0.00  0.00    +0.000 A 
ATOM     18  CD2 TYR A   2      -3.421   1.353   0.587  0.00  0.00    +0.000 A 
ENDBRANCH  11  12
ENDBRANCH  10  11
TORSDOF 7
