
     RDKit          3D

 17 16  0  0  0  0  0  0  0  0999 V2000
   -3.5646    1.1926    1.5973 C   0  0  0  0  0  0  0  0  0  0  0  0
   -2.3592    0.3948    1.9850 C   0  0  0  0  0  0  0  0  0  0  0  0
   -2.6232   -0.2200    3.3048 C   0  0  0  0  0  0  0  0  0  0  0  0
   -1.8487   -0.5222    0.9162 C   0  0  0  0  0  0  0  0  0  0  0  0
   -2.0959    0.4063   -0.4256 C   0  0  1  0  0  0  0  0  0  0  0  0
   -0.6007    0.8176   -0.5872 N   0  0  0  0  0  0  0  0  0  0  0  0
    0.4474    0.0269   -0.9379 C   0  0  0  0  0  0  0  0  0  0  0  0
    0.2681   -1.1683   -0.9210 O   0  0  0  0  0  0  0  0  0  0  0  0
    1.6792    0.6915   -0.1198 C   0  0  1  0  0  0  0  0  0  0  0  0
    1.7011   -0.4361    0.9838 N   0  0  0  0  0  0  0  0  0  0  0  0
    2.8940   -0.0288   -0.9603 C   0  0  0  0  0  0  0  0  0  0  0  0
    4.0577    0.4365   -0.1367 C   0  0  0  0  0  0  0  0  0  0  0  0
    4.0559    1.5083    0.5407 O   0  0  0  0  0  0  0  0  0  0  0  0
    5.2032   -0.3374    0.0623 O   0  0  0  0  0  0  0  0  0  0  0  0
   -2.0416   -0.8869   -1.3990 C   0  0  0  0  0  0  0  0  0  0  0  0
   -3.1706   -1.4460   -1.1778 O   0  0  0  0  0  0  0  0  0  0  0  0
   -2.0020   -0.4287   -2.7248 O   0  0  0  0  0  0  0  0  0  0  0  0
  1  2  1  0
  2  3  1  0
  2  4  1  0
  5  4  1  1
  5  6  1  0
  6  7  1  0
  7  8  2  0
  9  7  1  6
  9 10  1  0
  9 11  1  0
 11 12  1  0
 12 13  2  0
 12 14  1  0
  5 15  1  0
 15 16  2  0
 15 17  1  0
M  END
>  <zinc_id>  (1) 
ZINC000001575283

>  <smiles>  (1) 
CC(C)C[C@@H](NC(=O)[C@@H](N)CC(=O)O)C(=O)O

$$$$
