REMARK  Name = 
REMARK  9 active torsions:
REMARK  status: ('A' for Active; 'I' for Inactive)
REMARK    1  A    between atoms: CE_2  and  CD_3
REMARK    2  A    between atoms: CD_3  and  CG_4
REMARK    3  A    between atoms: CG_4  and  CB_5
REMARK    4  A    between atoms: CB_5  and  CA_6
REMARK    5  A    between atoms: CA_6  and  N_7
REMARK    6  A    between atoms: CA_6  and  C_16
REMARK    7  A    between atoms: C_8  and  CA_10
REMARK    8  A    between atoms: CA_10  and  CB_12
REMARK    9  A    between atoms: CB_12  and  CG_13
REMARK                            x       y       z     vdW  Elec       q    Type
REMARK                         _______ _______ _______ _____ _____    ______ ____
ROOT
ATOM      6  CA  LYS A   2      -1.024  -0.956  -0.565  0.00  0.00    +0.000 C 
ENDROOT
BRANCH   6   7
ATOM      7  N   LYS A   2       0.197  -0.578   0.390  0.00  0.00    +0.000 NA
ATOM      8  C   ASP A   1       1.441  -0.761  -0.306  0.00  0.00    +0.000 C 
ATOM      9  O   ASP A   1       1.456  -0.315  -1.467  0.00  0.00    +0.000 OA
BRANCH   8  10
ATOM     10  CA  ASP A   1       2.588  -0.165   0.695  0.00  0.00    +0.000 C 
ATOM     11  N   ASP A   1       3.736  -0.276  -0.410  0.00  0.00    +0.000 NA
BRANCH  10  12
ATOM     12  CB  ASP A   1       2.233   1.405   0.262  0.00  0.00    +0.000 C 
BRANCH  12  13
ATOM     13  CG  ASP A   1       3.531   2.099   0.261  0.00  0.00    +0.000 C 
ATOM     14  OD1 ASP A   1       4.463   1.662   0.989  0.00  0.00    +0.000 OA
ATOM     15  OD2 ASP A   1       3.816   2.919  -0.812  0.00  0.00    +0.000 OA
ENDBRANCH  12  13
ENDBRANCH  10  12
ENDBRANCH   8  10
ENDBRANCH   6   7
BRANCH   6  16
ATOM     16  C   LYS A   2      -0.997  -2.494  -0.020  0.00  0.00    +0.000 C 
ATOM     17  O   LYS A   2      -2.000  -2.930   0.503  0.00  0.00    +0.000 OA
ATOM     18  OXT LYS A   2      -0.282  -3.230  -0.969  0.00  0.00    +0.000 OA
ENDBRANCH   6  16
BRANCH   6   5
ATOM      5  CB  LYS A   2      -2.127  -0.436   0.573  0.00  0.00    +0.000 C 
BRANCH   5   4
ATOM      4  CG  LYS A   2      -3.403  -0.516  -0.264  0.00  0.00    +0.000 C 
BRANCH   4   3
ATOM      3  CD  LYS A   2      -3.815   0.894  -0.613  0.00  0.00    +0.000 C 
BRANCH   3   2
ATOM      1  NZ  LYS A   2      -5.048   2.192   0.561  0.00  0.00    +0.000 NA
ATOM      2  CE  LYS A   2      -4.764   1.486   0.414  0.00  0.00    +0.000 C 
ENDBRANCH   3   2
ENDBRANCH   4   3
ENDBRANCH   5   4
ENDBRANCH   6   5
TORSDOF 9
