
     RDKit          3D

 17 16  0  0  0  0  0  0  0  0999 V2000
   -3.9487    1.7909   -0.0049 C   0  0  0  0  0  0  0  0  0  0  0  0
   -3.4729    0.6070   -0.0437 C   0  0  0  0  0  0  0  0  0  0  0  0
   -4.1183   -0.2394   -1.0942 C   0  0  0  0  0  0  0  0  0  0  0  0
   -1.9759    0.6593   -0.2306 C   0  0  0  0  0  0  0  0  0  0  0  0
   -1.5844   -0.8601   -0.8280 C   0  0  1  0  0  0  0  0  0  0  0  0
   -0.0162   -0.7211   -0.5294 N   0  0  0  0  0  0  0  0  0  0  0  0
    0.6083    0.5024   -0.8493 C   0  0  0  0  0  0  0  0  0  0  0  0
   -0.1193    1.5224   -0.7468 O   0  0  0  0  0  0  0  0  0  0  0  0
    1.9140    0.5563    0.1593 C   0  0  2  0  0  0  0  0  0  0  0  0
    2.2512    2.0811   -0.2121 N   0  0  0  0  0  0  0  0  0  0  0  0
    2.9330   -0.0009   -1.0445 C   0  0  0  0  0  0  0  0  0  0  0  0
    4.1772   -0.1893   -0.2436 C   0  0  0  0  0  0  0  0  0  0  0  0
    4.7306   -1.3220   -0.2941 O   0  0  0  0  0  0  0  0  0  0  0  0
    4.5761    0.8105    0.6518 O   0  0  0  0  0  0  0  0  0  0  0  0
   -1.8603   -1.5643    0.6303 C   0  0  0  0  0  0  0  0  0  0  0  0
   -1.3447   -1.0283    1.6052 O   0  0  0  0  0  0  0  0  0  0  0  0
   -2.7496   -2.6042    0.5965 O   0  0  0  0  0  0  0  0  0  0  0  0
  1  2  1  0
  2  3  1  0
  2  4  1  0
  5  4  1  1
  5  6  1  0
  6  7  1  0
  7  8  2  0
  9  7  1  6
  9 10  1  0
  9 11  1  0
 11 12  1  0
 12 13  2  0
 12 14  1  0
  5 15  1  0
 15 16  2  0
 15 17  1  0
M  END
>  <zinc_id>  (1) 
ZINC000001575281

>  <smiles>  (1) 
CC(C)C[C@@H](NC(=O)[C@H](N)CC(=O)O)C(=O)O

$$$$
