
     RDKit          3D

 17 16  0  0  0  0  0  0  0  0999 V2000
    1.4198    2.1227    1.0968 N   0  0  0  0  0  0  0  0  0  0  0  0
    1.9638    0.6411    1.0783 C   0  0  2  0  0  0  0  0  0  0  0  0
    2.4617    0.7827   -0.4839 C   0  0  0  0  0  0  0  0  0  0  0  0
    3.6486   -0.1008   -0.5305 C   0  0  0  0  0  0  0  0  0  0  0  0
    4.0516   -0.7855    0.4556 O   0  0  0  0  0  0  0  0  0  0  0  0
    4.2412   -0.3945   -1.7411 O   0  0  0  0  0  0  0  0  0  0  0  0
    0.5260    0.0429    0.7261 C   0  0  0  0  0  0  0  0  0  0  0  0
   -0.1432   -0.4102    1.6852 O   0  0  0  0  0  0  0  0  0  0  0  0
    0.1313   -0.3521   -0.4966 N   0  0  0  0  0  0  0  0  0  0  0  0
   -1.3869   -0.3063   -0.9019 C   0  0  2  0  0  0  0  0  0  0  0  0
   -1.9553    0.1892    0.5618 C   0  0  0  0  0  0  0  0  0  0  0  0
   -2.7403    1.3995    0.2905 C   0  0  0  0  0  0  0  0  0  0  0  0
   -2.7935    1.9742   -0.8322 O   0  0  0  0  0  0  0  0  0  0  0  0
   -3.6491    1.8270    1.2309 O   0  0  0  0  0  0  0  0  0  0  0  0
   -1.5969   -1.8696   -0.5506 C   0  0  0  0  0  0  0  0  0  0  0  0
   -1.3335   -2.5669   -1.5803 O   0  0  0  0  0  0  0  0  0  0  0  0
   -2.8453   -2.1936   -0.0081 O   0  0  0  0  0  0  0  0  0  0  0  0
  2  1  1  6
  2  3  1  0
  3  4  1  0
  4  5  2  0
  4  6  1  0
  2  7  1  0
  7  8  2  0
  7  9  1  0
 10  9  1  1
 10 11  1  0
 11 12  1  0
 12 13  2  0
 12 14  1  0
 10 15  1  0
 15 16  2  0
 15 17  1  0
M  END
>  <zinc_id>  (1) 
ZINC000001575291

>  <smiles>  (1) 
N[C@H](CC(=O)O)C(=O)N[C@H](CC(=O)O)C(=O)O

$$$$
