REMARK  Name = 
REMARK  7 active torsions:
REMARK  status: ('A' for Active; 'I' for Inactive)
REMARK    1  A    between atoms: CA_2  and  CB_3
REMARK    2  A    between atoms: CA_2  and  C_7
REMARK    3  A    between atoms: CB_3  and  CG_4
REMARK    4  A    between atoms: N_9  and  CA_10
REMARK    5  A    between atoms: CA_10  and  CB_11
REMARK    6  A    between atoms: CA_10  and  C_15
REMARK    7  A    between atoms: CB_11  and  CG_12
REMARK                            x       y       z     vdW  Elec       q    Type
REMARK                         _______ _______ _______ _____ _____    ______ ____
ROOT
ATOM      7  C   ASP A   1       0.527  -0.405   0.026  0.00  0.00    +0.000 C 
ATOM      8  O   ASP A   1       0.158  -0.934  -0.990  0.00  0.00    +0.000 OA
ATOM      9  N   ASP A   2      -0.328   0.275   0.853  0.00  0.00    +0.000 NA
ENDROOT
BRANCH   7   2
ATOM      1  N   ASP A   1       2.410  -1.751  -0.402  0.00  0.00    +0.000 NA
ATOM      2  CA  ASP A   1       2.006  -0.613   0.613  0.00  0.00    +0.000 C 
BRANCH   2   3
ATOM      3  CB  ASP A   1       2.623   0.557  -0.367  0.00  0.00    +0.000 C 
BRANCH   3   4
ATOM      4  CG  ASP A   1       4.086   0.458  -0.233  0.00  0.00    +0.000 C 
ATOM      5  OD1 ASP A   1       4.628  -0.627  -0.582  0.00  0.00    +0.000 OA
ATOM      6  OD2 ASP A   1       4.823   1.613  -0.511  0.00  0.00    +0.000 OA
ENDBRANCH   3   4
ENDBRANCH   2   3
ENDBRANCH   7   2
BRANCH   9  10
ATOM     10  CA  ASP A   2      -1.883   0.161   0.670  0.00  0.00    +0.000 C 
BRANCH  10  15
ATOM     15  C   ASP A   2      -1.844  -1.313   0.007  0.00  0.00    +0.000 C 
ATOM     16  O   ASP A   2      -1.764  -2.139   0.968  0.00  0.00    +0.000 OA
ATOM     17  OXT ASP A   2      -2.919  -1.552  -0.853  0.00  0.00    +0.000 OA
ENDBRANCH  10  15
BRANCH  10  11
ATOM     11  CB  ASP A   2      -1.845   0.902  -0.799  0.00  0.00    +0.000 C 
BRANCH  11  12
ATOM     12  CG  ASP A   2      -3.122   1.683  -0.820  0.00  0.00    +0.000 C 
ATOM     13  OD1 ASP A   2      -4.133   1.266  -1.464  0.00  0.00    +0.000 OA
ATOM     14  OD2 ASP A   2      -3.424   2.418   0.330  0.00  0.00    +0.000 OA
ENDBRANCH  11  12
ENDBRANCH  10  11
ENDBRANCH   9  10
TORSDOF 7
