REMARK  Name = 
REMARK  9 active torsions:
REMARK  status: ('A' for Active; 'I' for Inactive)
REMARK    1  A    between atoms: CE_2  and  CD_3
REMARK    2  A    between atoms: CD_3  and  CG_4
REMARK    3  A    between atoms: CG_4  and  CB_5
REMARK    4  A    between atoms: CB_5  and  CA_6
REMARK    5  A    between atoms: CA_6  and  N_7
REMARK    6  A    between atoms: CA_6  and  C_16
REMARK    7  A    between atoms: C_8  and  CA_10
REMARK    8  A    between atoms: CA_10  and  CB_12
REMARK    9  A    between atoms: CB_12  and  CG_13
REMARK                            x       y       z     vdW  Elec       q    Type
REMARK                         _______ _______ _______ _____ _____    ______ ____
ROOT
ATOM      6  CA  LYS A   2      -1.181  -0.659  -0.400  0.00  0.00    +0.000 C 
ENDROOT
BRANCH   6   7
ATOM      7  N   LYS A   2       0.206  -0.816  -1.147  0.00  0.00    +0.000 NA
ATOM      8  C   ASP A   1       1.213  -0.156  -0.495  0.00  0.00    +0.000 C 
ATOM      9  O   ASP A   1       1.085   1.107  -0.520  0.00  0.00    +0.000 OA
BRANCH   8  10
ATOM     10  CA  ASP A   1       2.739  -0.653  -0.481  0.00  0.00    +0.000 C 
ATOM     11  N   ASP A   1       2.369  -2.145  -0.115  0.00  0.00    +0.000 NA
BRANCH  10  12
ATOM     12  CB  ASP A   1       2.880  -0.239   1.111  0.00  0.00    +0.000 C 
BRANCH  12  13
ATOM     13  CG  ASP A   1       4.255   0.251   1.284  0.00  0.00    +0.000 C 
ATOM     14  OD1 ASP A   1       4.770   0.090   2.432  0.00  0.00    +0.000 OA
ATOM     15  OD2 ASP A   1       5.057   0.740   0.273  0.00  0.00    +0.000 OA
ENDBRANCH  12  13
ENDBRANCH  10  12
ENDBRANCH   8  10
ENDBRANCH   6   7
BRANCH   6  16
ATOM     16  C   LYS A   2      -1.034   0.928  -0.147  0.00  0.00    +0.000 C 
ATOM     17  O   LYS A   2      -1.720   1.719  -0.779  0.00  0.00    +0.000 OA
ATOM     18  OXT LYS A   2      -1.116   1.070   1.251  0.00  0.00    +0.000 OA
ENDBRANCH   6  16
BRANCH   6   5
ATOM      5  CB  LYS A   2      -2.002  -0.516  -1.822  0.00  0.00    +0.000 C 
BRANCH   5   4
ATOM      4  CG  LYS A   2      -3.398  -0.093  -1.381  0.00  0.00    +0.000 C 
BRANCH   4   3
ATOM      3  CD  LYS A   2      -3.723  -0.620  -0.011  0.00  0.00    +0.000 C 
BRANCH   3   2
ATOM      1  NZ  LYS A   2      -5.492   0.280   0.350  0.00  0.00    +0.000 NA
ATOM      2  CE  LYS A   2      -4.907   0.073   0.596  0.00  0.00    +0.000 C 
ENDBRANCH   3   2
ENDBRANCH   4   3
ENDBRANCH   5   4
ENDBRANCH   6   5
TORSDOF 9
