
     RDKit          3D

 20 20  0  0  0  0  0  0  0  0999 V2000
    3.4126   -1.5248    0.7025 N   0  0  0  0  0  0  0  0  0  0  0  0
    2.5327   -0.2886    1.2309 C   0  0  1  0  0  0  0  0  0  0  0  0
    3.4067    0.7870    0.2856 C   0  0  0  0  0  0  0  0  0  0  0  0
    4.7967    0.6074    0.7244 C   0  0  0  0  0  0  0  0  0  0  0  0
    5.6763    0.4657   -0.1747 O   0  0  0  0  0  0  0  0  0  0  0  0
    5.2204    0.8554    2.0073 O   0  0  0  0  0  0  0  0  0  0  0  0
    1.3788   -0.5159    0.0867 C   0  0  0  0  0  0  0  0  0  0  0  0
    1.7936   -0.6670   -1.0630 O   0  0  0  0  0  0  0  0  0  0  0  0
    0.1017    0.0529    0.4245 N   0  0  0  0  0  0  0  0  0  0  0  0
   -0.3680    0.9626   -0.8205 C   0  0  2  0  0  0  0  0  0  0  0  0
   -1.7643    1.4449   -0.0351 C   0  0  0  0  0  0  0  0  0  0  0  0
   -2.6064    0.2625    0.1356 C   0  0  0  0  0  0  0  0  0  0  0  0
   -3.0086   -0.0976    1.4179 C   0  0  0  0  0  0  0  0  0  0  0  0
   -4.2960   -0.5490    1.6849 C   0  0  0  0  0  0  0  0  0  0  0  0
   -5.1977   -0.7275    0.6579 C   0  0  0  0  0  0  0  0  0  0  0  0
   -4.7072   -0.6899   -0.6341 C   0  0  0  0  0  0  0  0  0  0  0  0
   -3.6215    0.1548   -0.8144 C   0  0  0  0  0  0  0  0  0  0  0  0
   -1.0916   -0.2623   -1.6438 C   0  0  0  0  0  0  0  0  0  0  0  0
   -0.9800   -1.3929   -1.1956 O   0  0  0  0  0  0  0  0  0  0  0  0
   -0.6783   -0.1220   -2.9768 O   0  0  0  0  0  0  0  0  0  0  0  0
  2  1  1  6
  2  3  1  0
  3  4  1  0
  4  5  2  0
  4  6  1  0
  2  7  1  0
  7  8  2  0
  7  9  1  0
 10  9  1  1
 10 11  1  0
 11 12  1  0
 12 13  2  0
 13 14  1  0
 14 15  2  0
 15 16  1  0
 16 17  2  0
 10 18  1  0
 18 19  2  0
 18 20  1  0
 17 12  1  0
M  END
>  <zinc_id>  (1) 
ZINC000004534014

>  <smiles>  (1) 
N[C@@H](CC(=O)O)C(=O)N[C@H](Cc1ccccc1)C(=O)O

$$$$
