REMARK  Name = 
REMARK  7 active torsions:
REMARK  status: ('A' for Active; 'I' for Inactive)
REMARK    1  A    between atoms: CG_2  and  CB_4
REMARK    2  A    between atoms: CB_4  and  CA_5
REMARK    3  A    between atoms: CA_5  and  N_6
REMARK    4  A    between atoms: CA_5  and  C_15
REMARK    5  A    between atoms: C_7  and  CA_9
REMARK    6  A    between atoms: CA_9  and  CB_11
REMARK    7  A    between atoms: CB_11  and  CG_12
REMARK                            x       y       z     vdW  Elec       q    Type
REMARK                         _______ _______ _______ _____ _____    ______ ____
ROOT
ATOM      6  N   LEU A   2       0.467   1.176  -0.402  0.00  0.00    +0.000 NA
ATOM      7  C   ASP A   1      -0.609   0.520  -1.010  0.00  0.00    +0.000 C 
ATOM      8  O   ASP A   1      -0.476  -0.520  -1.611  0.00  0.00    +0.000 OA
ENDROOT
BRANCH   7   9
ATOM      9  CA  ASP A   1      -2.100   0.955  -0.486  0.00  0.00    +0.000 C 
ATOM     10  N   ASP A   1      -2.617   1.176  -1.990  0.00  0.00    +0.000 NA
BRANCH   9  11
ATOM     11  CB  ASP A   1      -2.684  -0.618  -0.461  0.00  0.00    +0.000 C 
BRANCH  11  12
ATOM     12  CG  ASP A   1      -3.922  -0.522   0.373  0.00  0.00    +0.000 C 
ATOM     13  OD1 ASP A   1      -4.850  -1.344   0.153  0.00  0.00    +0.000 OA
ATOM     14  OD2 ASP A   1      -3.945   0.185   1.555  0.00  0.00    +0.000 OA
ENDBRANCH  11  12
ENDBRANCH   9  11
ENDBRANCH   7   9
BRANCH   6   5
ATOM      5  CA  LEU A   2       1.303   0.162   0.518  0.00  0.00    +0.000 C 
BRANCH   5  15
ATOM     15  C   LEU A   2       2.388   1.330   0.923  0.00  0.00    +0.000 C 
ATOM     16  O   LEU A   2       3.216   0.742   1.687  0.00  0.00    +0.000 OA
ATOM     17  OXT LEU A   2       1.789   2.444   1.494  0.00  0.00    +0.000 OA
ENDBRANCH   5  15
BRANCH   5   4
ATOM      4  CB  LEU A   2       2.244  -0.323  -0.779  0.00  0.00    +0.000 C 
BRANCH   4   2
ATOM      1  CD1 LEU A   2       4.159  -1.943  -0.824  0.00  0.00    +0.000 C 
ATOM      2  CG  LEU A   2       3.207  -1.221  -0.009  0.00  0.00    +0.000 C 
ATOM      3  CD2 LEU A   2       2.431  -2.199   0.870  0.00  0.00    +0.000 C 
ENDBRANCH   4   2
ENDBRANCH   5   4
ENDBRANCH   6   5
TORSDOF 7
