
     RDKit          3D

 14 13  0  0  0  0  0  0  0  0999 V2000
   -2.6981   -0.2617   -1.2940 C   0  0  0  0  0  0  0  0  0  0  0  0
   -2.3505    0.5871    0.0958 C   0  0  2  0  0  0  0  0  0  0  0  0
   -1.1407   -0.3949    0.4361 N   0  0  0  0  0  0  0  0  0  0  0  0
    0.0934    0.2784    0.7255 C   0  0  0  0  0  0  0  0  0  0  0  0
    0.0372    1.4769    1.0103 O   0  0  0  0  0  0  0  0  0  0  0  0
    1.2957   -0.1667   -0.2858 C   0  0  2  0  0  0  0  0  0  0  0  0
    1.8168   -1.2704    0.7415 N   0  0  0  0  0  0  0  0  0  0  0  0
    2.3777    0.9513    0.3091 C   0  0  0  0  0  0  0  0  0  0  0  0
    3.6923    0.2837    0.1964 C   0  0  0  0  0  0  0  0  0  0  0  0
    4.1565   -0.3143    1.2064 O   0  0  0  0  0  0  0  0  0  0  0  0
    3.9642   -0.3171   -1.0349 O   0  0  0  0  0  0  0  0  0  0  0  0
   -3.4494   -0.2849    0.9288 C   0  0  0  0  0  0  0  0  0  0  0  0
   -3.0636   -0.7891    1.9834 O   0  0  0  0  0  0  0  0  0  0  0  0
   -4.7315    0.2218    0.6966 O   0  0  0  0  0  0  0  0  0  0  0  0
  2  1  1  6
  2  3  1  0
  3  4  1  0
  4  5  2  0
  6  4  1  1
  6  7  1  0
  6  8  1  0
  8  9  1  0
  9 10  2  0
  9 11  1  0
  2 12  1  0
 12 13  2  0
 12 14  1  0
M  END
>  <zinc_id>  (1) 
ZINC000004523461

>  <smiles>  (1) 
C[C@H](NC(=O)[C@H](N)CC(=O)O)C(=O)O

$$$$
