
     RDKit          3D

 23 24  0  0  0  0  0  0  0  0999 V2000
    3.6126   -1.9054   -0.6251 N   0  0  0  0  0  0  0  0  0  0  0  0
    3.3961   -1.7407    0.9550 C   0  0  1  0  0  0  0  0  0  0  0  0
    4.3551   -0.3852    1.0905 C   0  0  0  0  0  0  0  0  0  0  0  0
    4.6597    0.1443   -0.2050 C   0  0  0  0  0  0  0  0  0  0  0  0
    3.8603    0.5020   -1.1220 O   0  0  0  0  0  0  0  0  0  0  0  0
    5.8593    0.8687   -0.2406 O   0  0  0  0  0  0  0  0  0  0  0  0
    2.0000   -0.9218    0.7241 C   0  0  0  0  0  0  0  0  0  0  0  0
    1.9897    0.2782    1.0422 O   0  0  0  0  0  0  0  0  0  0  0  0
    0.9742   -1.5480    1.5176 N   0  0  0  0  0  0  0  0  0  0  0  0
   -0.5086   -1.1191    1.0933 C   0  0  1  0  0  0  0  0  0  0  0  0
   -0.1185    0.4796    0.8220 C   0  0  0  0  0  0  0  0  0  0  0  0
   -1.3602    1.1754    0.5534 C   0  0  0  0  0  0  0  0  0  0  0  0
   -1.3921    2.5648    0.5991 C   0  0  0  0  0  0  0  0  0  0  0  0
   -2.6698    2.9951    0.4729 N   0  0  0  0  0  0  0  0  0  0  0  0
   -3.4762    1.9203    0.3402 C   0  0  0  0  0  0  0  0  0  0  0  0
   -4.8334    1.6985    0.4084 C   0  0  0  0  0  0  0  0  0  0  0  0
   -5.3755    0.4471    0.1533 C   0  0  0  0  0  0  0  0  0  0  0  0
   -4.4926   -0.5033   -0.3269 C   0  0  0  0  0  0  0  0  0  0  0  0
   -3.1940   -0.4096    0.1415 C   0  0  0  0  0  0  0  0  0  0  0  0
   -2.6557    0.8243    0.3389 C   0  0  0  0  0  0  0  0  0  0  0  0
   -0.2686   -1.6040   -0.4507 C   0  0  0  0  0  0  0  0  0  0  0  0
    0.2349   -0.8421   -1.2424 O   0  0  0  0  0  0  0  0  0  0  0  0
   -0.5967   -2.9190   -0.6685 O   0  0  0  0  0  0  0  0  0  0  0  0
  2  1  1  6
  2  3  1  0
  3  4  1  0
  4  5  2  0
  4  6  1  0
  2  7  1  0
  7  8  2  0
  7  9  1  0
 10  9  1  1
 10 11  1  0
 11 12  1  0
 12 13  2  0
 13 14  1  0
 14 15  1  0
 15 16  2  0
 16 17  1  0
 17 18  2  0
 18 19  1  0
 19 20  2  0
 10 21  1  0
 21 22  2  0
 21 23  1  0
 20 12  1  0
 20 15  1  0
M  END
>  <zinc_id>  (1) 
ZINC000002560972

>  <smiles>  (1) 
N[C@@H](CC(=O)O)C(=O)N[C@@H](Cc1c[nH]c2ccccc12)C(=O)O

$$$$
