
     RDKit          3D

 16 16  0  0  0  0  0  0  0  0999 V2000
    2.2532    0.4658   -1.3390 N   0  0  0  0  0  0  0  0  0  0  0  0
    1.5237   -0.6733   -0.5036 C   0  0  1  0  0  0  0  0  0  0  0  0
    2.2984   -0.2157    0.8904 C   0  0  0  0  0  0  0  0  0  0  0  0
    3.7221   -0.4375    0.5639 C   0  0  0  0  0  0  0  0  0  0  0  0
    4.5216    0.5247    0.3515 O   0  0  0  0  0  0  0  0  0  0  0  0
    4.0354   -1.6809    0.0352 O   0  0  0  0  0  0  0  0  0  0  0  0
    0.2248    0.2529   -0.2041 C   0  0  0  0  0  0  0  0  0  0  0  0
    0.4318    1.3863    0.2260 O   0  0  0  0  0  0  0  0  0  0  0  0
   -0.9939   -0.4463   -0.0512 N   0  0  0  0  0  0  0  0  0  0  0  0
   -1.3281   -1.8031    0.1750 C   0  0  0  0  0  0  0  0  0  0  0  0
   -2.6887   -1.5095    0.8157 C   0  0  0  0  0  0  0  0  0  0  0  0
   -3.3128   -0.9235   -0.3844 C   0  0  0  0  0  0  0  0  0  0  0  0
   -2.1882    0.1871   -0.8819 C   0  0  1  0  0  0  0  0  0  0  0  0
   -2.5015    1.2579    0.3075 C   0  0  0  0  0  0  0  0  0  0  0  0
   -2.2350    2.3730   -0.2497 O   0  0  0  0  0  0  0  0  0  0  0  0
   -3.7630    1.2421    0.8421 O   0  0  0  0  0  0  0  0  0  0  0  0
  2  1  1  6
  2  3  1  0
  3  4  1  0
  4  5  2  0
  4  6  1  0
  2  7  1  0
  7  8  2  0
  7  9  1  0
  9 10  1  0
 10 11  1  0
 11 12  1  0
 12 13  1  0
 13 14  1  1
 14 15  2  0
 14 16  1  0
 13  9  1  0
M  END
>  <zinc_id>  (1) 
ZINC000005134625

>  <smiles>  (1) 
N[C@@H](CC(=O)O)C(=O)N1CCC[C@H]1C(=O)O

$$$$
