REMARK  Name = 
REMARK  7 active torsions:
REMARK  status: ('A' for Active; 'I' for Inactive)
REMARK    1  A    between atoms: CA_2  and  C_3
REMARK    2  A    between atoms: CA_2  and  C_16
REMARK    3  A    between atoms: C_3  and  C_4
REMARK    4  A    between atoms: C_4  and  C_5
REMARK    5  A    between atoms: C_8  and  C_10
REMARK    6  A    between atoms: C_10  and  C_12
REMARK    7  A    between atoms: C_12  and  C_13
REMARK                            x       y       z     vdW  Elec       q    Type
REMARK                         _______ _______ _______ _____ _____    ______ ____
ROOT
ATOM      5  C   UNL     1      -0.791  -0.593  -1.646  0.00  0.00    +0.000 C 
ATOM      6  O   UNL     1      -0.246  -0.148  -2.703  0.00  0.00    +0.000 OA
ATOM      7  N   UNL     1       0.043  -0.781  -0.524  0.00  0.00    +0.000 NA
ATOM      8  C   UNL     1       1.223   0.012  -0.436  0.00  0.00    +0.000 C 
ATOM      9  O   UNL     1       1.529   0.919  -1.216  0.00  0.00    +0.000 OA
ENDROOT
BRANCH   8  10
ATOM     10  C   UNL     1       2.475  -0.759   0.288  0.00  0.00    +0.000 C 
ATOM     11  N   UNL     1       3.360  -0.771  -1.050  0.00  0.00    +0.000 NA
BRANCH  10  12
ATOM     12  C   UNL     1       3.163   0.680   0.789  0.00  0.00    +0.000 C 
BRANCH  12  13
ATOM     13  C   UNL     1       4.394   0.270   1.501  0.00  0.00    +0.000 C 
ATOM     14  O   UNL     1       5.515   0.482   0.976  0.00  0.00    +0.000 OA
ATOM     15  O   UNL     1       4.368   0.077   2.877  0.00  0.00    +0.000 OA
ENDBRANCH  12  13
ENDBRANCH  10  12
ENDBRANCH   8  10
BRANCH   5   4
ATOM      4  C   UNL     1      -2.255  -0.702  -1.671  0.00  0.00    +0.000 C 
BRANCH   4   3
ATOM      3  C   UNL     1      -2.905  -0.836  -0.328  0.00  0.00    +0.000 C 
BRANCH   3   2
ATOM      1  N   UNL     1      -3.415   1.390  -0.890  0.00  0.00    +0.000 NA
ATOM      2  CA  UNL     1      -4.279   0.108  -0.466  0.00  0.00    +0.000 C 
BRANCH   2  16
ATOM     16  C   UNL     1      -4.256   0.512   1.123  0.00  0.00    +0.000 C 
ATOM     17  O   UNL     1      -4.873  -0.403   1.752  0.00  0.00    +0.000 OA
ATOM     18  OXT UNL     1      -3.049   0.902   1.626  0.00  0.00    +0.000 OA
ENDBRANCH   2  16
ENDBRANCH   3   2
ENDBRANCH   4   3
ENDBRANCH   5   4
TORSDOF 7
