
     RDKit          3D

 18 17  0  0  0  0  0  0  0  0999 V2000
   -5.4915    0.2802    0.3498 N   0  0  0  0  0  0  0  0  0  0  0  0
   -4.9069    0.0727    0.5964 C   0  0  0  0  0  0  0  0  0  0  0  0
   -3.7228   -0.6203   -0.0113 C   0  0  0  0  0  0  0  0  0  0  0  0
   -3.3984   -0.0934   -1.3807 C   0  0  0  0  0  0  0  0  0  0  0  0
   -2.0023   -0.5162   -1.8216 C   0  0  0  0  0  0  0  0  0  0  0  0
   -1.1815   -0.6589   -0.3997 C   0  0  1  0  0  0  0  0  0  0  0  0
    0.2062   -0.8157   -1.1466 N   0  0  0  0  0  0  0  0  0  0  0  0
    1.2132   -0.1557   -0.4952 C   0  0  0  0  0  0  0  0  0  0  0  0
    1.0848    1.1066   -0.5199 O   0  0  0  0  0  0  0  0  0  0  0  0
    2.7385   -0.6532   -0.4807 C   0  0  2  0  0  0  0  0  0  0  0  0
    2.3693   -2.1449   -0.1147 N   0  0  0  0  0  0  0  0  0  0  0  0
    2.8802   -0.2395    1.1108 C   0  0  0  0  0  0  0  0  0  0  0  0
    4.2545    0.2513    1.2841 C   0  0  0  0  0  0  0  0  0  0  0  0
    4.7697    0.0899    2.4317 O   0  0  0  0  0  0  0  0  0  0  0  0
    5.0570    0.7396    0.2726 O   0  0  0  0  0  0  0  0  0  0  0  0
   -1.0336    0.9283   -0.1470 C   0  0  0  0  0  0  0  0  0  0  0  0
   -1.7201    1.7193   -0.7789 O   0  0  0  0  0  0  0  0  0  0  0  0
   -1.1163    1.0700    1.2509 O   0  0  0  0  0  0  0  0  0  0  0  0
  1  2  1  0
  2  3  1  0
  3  4  1  0
  4  5  1  0
  6  5  1  6
  6  7  1  0
  7  8  1  0
  8  9  2  0
 10  8  1  1
 10 11  1  0
 10 12  1  0
 12 13  1  0
 13 14  2  0
 13 15  1  0
  6 16  1  0
 16 17  2  0
 16 18  1  0
M  END
>  <zinc_id>  (1) 
ZINC000004533726

>  <smiles>  (1) 
NCCCC[C@@H](NC(=O)[C@H](N)CC(=O)O)C(=O)O

$$$$
