
     RDKit          3D

 17 16  0  0  0  0  0  0  0  0999 V2000
   -3.4430    2.5029    0.1456 C   0  0  0  0  0  0  0  0  0  0  0  0
   -3.6071    1.4486    0.5982 C   0  0  0  0  0  0  0  0  0  0  0  0
   -3.0757    0.3628   -0.4765 C   0  0  2  0  0  0  0  0  0  0  0  0
   -4.0596   -0.7729    0.1250 C   0  0  0  0  0  0  0  0  0  0  0  0
   -1.7782   -0.0869    0.5316 C   0  0  2  0  0  0  0  0  0  0  0  0
   -0.6704    0.4569   -0.4440 N   0  0  0  0  0  0  0  0  0  0  0  0
    0.5555    0.7555    0.2058 C   0  0  0  0  0  0  0  0  0  0  0  0
    0.5132    1.3349    1.2623 O   0  0  0  0  0  0  0  0  0  0  0  0
    1.8712   -0.0188   -0.2927 C   0  0  1  0  0  0  0  0  0  0  0  0
    2.3591    1.2141   -1.1473 N   0  0  0  0  0  0  0  0  0  0  0  0
    2.8165    0.4360    0.9776 C   0  0  0  0  0  0  0  0  0  0  0  0
    4.1041   -0.3052    0.7664 C   0  0  0  0  0  0  0  0  0  0  0  0
    4.0255   -1.5449    1.0231 O   0  0  0  0  0  0  0  0  0  0  0  0
    5.0026    0.0569   -0.2245 O   0  0  0  0  0  0  0  0  0  0  0  0
   -1.7534   -1.5761   -0.0544 C   0  0  0  0  0  0  0  0  0  0  0  0
   -1.3016   -1.8229   -1.1513 O   0  0  0  0  0  0  0  0  0  0  0  0
   -1.5587   -2.4410    1.0122 O   0  0  0  0  0  0  0  0  0  0  0  0
  1  2  1  0
  3  2  1  1
  3  4  1  0
  3  5  1  0
  5  6  1  6
  6  7  1  0
  7  8  2  0
  9  7  1  1
  9 10  1  0
  9 11  1  0
 11 12  1  0
 12 13  2  0
 12 14  1  0
  5 15  1  0
 15 16  2  0
 15 17  1  0
M  END
>  <zinc_id>  (1) 
ZINC000013518994

>  <smiles>  (1) 
CC[C@H](C)[C@H](NC(=O)[C@@H](N)CC(=O)O)C(=O)O

$$$$
