
     RDKit          3D

 20 20  0  0  0  0  0  0  0  0999 V2000
    3.7734    1.2666   -0.2418 N   0  0  0  0  0  0  0  0  0  0  0  0
    2.7403    0.2444    0.4265 C   0  0  2  0  0  0  0  0  0  0  0  0
    3.1669   -0.9508   -0.6530 C   0  0  0  0  0  0  0  0  0  0  0  0
    4.1346   -1.7399    0.1326 C   0  0  0  0  0  0  0  0  0  0  0  0
    4.9244   -2.5329   -0.4606 O   0  0  0  0  0  0  0  0  0  0  0  0
    4.1445   -1.7991    1.5295 O   0  0  0  0  0  0  0  0  0  0  0  0
    1.4861    0.7247   -0.4995 C   0  0  0  0  0  0  0  0  0  0  0  0
    1.4587    1.8730   -0.9149 O   0  0  0  0  0  0  0  0  0  0  0  0
    0.2413    0.1755   -0.2692 N   0  0  0  0  0  0  0  0  0  0  0  0
   -0.8420    0.9873    0.5754 C   0  0  2  0  0  0  0  0  0  0  0  0
   -1.9515    0.8787   -0.6671 C   0  0  0  0  0  0  0  0  0  0  0  0
   -2.9427   -0.0873   -0.0938 C   0  0  0  0  0  0  0  0  0  0  0  0
   -4.0974   -0.3288   -0.7960 C   0  0  0  0  0  0  0  0  0  0  0  0
   -4.6636   -1.5951   -0.9013 C   0  0  0  0  0  0  0  0  0  0  0  0
   -4.1435   -2.5961   -0.0902 C   0  0  0  0  0  0  0  0  0  0  0  0
   -3.2672   -2.2299    0.9250 C   0  0  0  0  0  0  0  0  0  0  0  0
   -2.5583   -1.0678    0.7993 C   0  0  0  0  0  0  0  0  0  0  0  0
   -0.3401    2.4902    0.1433 C   0  0  0  0  0  0  0  0  0  0  0  0
    0.1339    2.9368    1.2473 O   0  0  0  0  0  0  0  0  0  0  0  0
   -1.3977    3.3505   -0.1915 O   0  0  0  0  0  0  0  0  0  0  0  0
  2  1  1  6
  2  3  1  0
  3  4  1  0
  4  5  2  0
  4  6  1  0
  2  7  1  0
  7  8  2  0
  7  9  1  0
 10  9  1  6
 10 11  1  0
 11 12  1  0
 12 13  2  0
 13 14  1  0
 14 15  2  0
 15 16  1  0
 16 17  2  0
 10 18  1  0
 18 19  2  0
 18 20  1  0
 17 12  1  0
M  END
>  <zinc_id>  (1) 
ZINC000004534013

>  <smiles>  (1) 
N[C@H](CC(=O)O)C(=O)N[C@H](Cc1ccccc1)C(=O)O

$$$$
