
     RDKit          3D

 21 21  0  0  0  0  0  0  0  0999 V2000
    3.9133   -2.4557   -0.0092 N   0  0  0  0  0  0  0  0  0  0  0  0
    2.8837   -1.7964    1.0330 C   0  0  1  0  0  0  0  0  0  0  0  0
    3.9604   -0.5662    1.3923 C   0  0  0  0  0  0  0  0  0  0  0  0
    4.4384   -0.0810    0.0879 C   0  0  0  0  0  0  0  0  0  0  0  0
    5.4698   -0.5739   -0.4610 O   0  0  0  0  0  0  0  0  0  0  0  0
    3.9170    1.0356   -0.5691 O   0  0  0  0  0  0  0  0  0  0  0  0
    2.1436   -0.8805   -0.1167 C   0  0  0  0  0  0  0  0  0  0  0  0
    1.8408   -1.5297   -1.1417 O   0  0  0  0  0  0  0  0  0  0  0  0
    1.2349    0.0746    0.4636 N   0  0  0  0  0  0  0  0  0  0  0  0
   -0.1367    0.0976   -0.3706 C   0  0  1  0  0  0  0  0  0  0  0  0
   -1.0284    0.6228    0.9483 C   0  0  0  0  0  0  0  0  0  0  0  0
   -2.3994    0.4469    0.3732 C   0  0  0  0  0  0  0  0  0  0  0  0
   -2.6969   -0.6461   -0.4319 C   0  0  0  0  0  0  0  0  0  0  0  0
   -3.9801   -0.8650   -0.9050 C   0  0  0  0  0  0  0  0  0  0  0  0
   -5.0297   -0.2651   -0.2327 C   0  0  0  0  0  0  0  0  0  0  0  0
   -6.2381   -0.9237   -0.0021 O   0  0  0  0  0  0  0  0  0  0  0  0
   -4.7200    0.9115    0.4030 C   0  0  0  0  0  0  0  0  0  0  0  0
   -3.4215    1.3534    0.5867 C   0  0  0  0  0  0  0  0  0  0  0  0
    0.1252    1.6300   -0.8977 C   0  0  0  0  0  0  0  0  0  0  0  0
   -0.7617    1.8708   -1.7742 O   0  0  0  0  0  0  0  0  0  0  0  0
    0.4854    2.5399    0.0458 O   0  0  0  0  0  0  0  0  0  0  0  0
  2  1  1  6
  2  3  1  0
  3  4  1  0
  4  5  2  0
  4  6  1  0
  2  7  1  0
  7  8  2  0
  7  9  1  0
 10  9  1  1
 10 11  1  0
 11 12  1  0
 12 13  2  0
 13 14  1  0
 14 15  2  0
 15 16  1  0
 15 17  1  0
 17 18  2  0
 10 19  1  0
 19 20  2  0
 19 21  1  0
 18 12  1  0
M  END
>  <zinc_id>  (1) 
ZINC000002391137

>  <smiles>  (1) 
N[C@@H](CC(=O)O)C(=O)N[C@@H](Cc1ccc(O)cc1)C(=O)O

$$$$
