
     RDKit          3D

 20 20  0  0  0  0  0  0  0  0999 V2000
    3.3788    0.3738    1.6706 N   0  0  0  0  0  0  0  0  0  0  0  0
    1.8832   -0.1015    1.7952 C   0  0  2  0  0  0  0  0  0  0  0  0
    2.2771   -1.6890    1.8529 C   0  0  0  0  0  0  0  0  0  0  0  0
    3.3925   -1.9956    1.0069 C   0  0  0  0  0  0  0  0  0  0  0  0
    3.9487   -1.3679    0.0972 O   0  0  0  0  0  0  0  0  0  0  0  0
    3.6571   -3.3771    0.9810 O   0  0  0  0  0  0  0  0  0  0  0  0
    1.6380   -0.1722    0.2009 C   0  0  0  0  0  0  0  0  0  0  0  0
    2.0903    0.7037   -0.5325 O   0  0  0  0  0  0  0  0  0  0  0  0
    0.2060   -0.0240    0.1062 N   0  0  0  0  0  0  0  0  0  0  0  0
   -0.2618   -0.9358   -1.0823 C   0  0  1  0  0  0  0  0  0  0  0  0
   -1.7484   -1.1005   -0.3829 C   0  0  0  0  0  0  0  0  0  0  0  0
   -2.2780    0.2570   -0.1670 C   0  0  0  0  0  0  0  0  0  0  0  0
   -1.9049    1.1579    0.7917 C   0  0  0  0  0  0  0  0  0  0  0  0
   -2.4533    2.4320    0.7946 C   0  0  0  0  0  0  0  0  0  0  0  0
   -3.8268    2.4193    0.6046 C   0  0  0  0  0  0  0  0  0  0  0  0
   -4.3098    1.5268   -0.3361 C   0  0  0  0  0  0  0  0  0  0  0  0
   -3.4588    0.5533   -0.8503 C   0  0  0  0  0  0  0  0  0  0  0  0
   -0.7436    0.2568   -2.0440 C   0  0  0  0  0  0  0  0  0  0  0  0
   -0.3148    1.3883   -1.9237 O   0  0  0  0  0  0  0  0  0  0  0  0
   -1.1713   -0.3053   -3.2338 O   0  0  0  0  0  0  0  0  0  0  0  0
  2  1  1  6
  2  3  1  0
  3  4  1  0
  4  5  2  0
  4  6  1  0
  2  7  1  0
  7  8  2  0
  7  9  1  0
 10  9  1  1
 10 11  1  0
 11 12  1  0
 12 13  2  0
 13 14  1  0
 14 15  2  0
 15 16  1  0
 16 17  2  0
 10 18  1  0
 18 19  2  0
 18 20  1  0
 17 12  1  0
M  END
>  <zinc_id>  (1) 
ZINC000004534012

>  <smiles>  (1) 
N[C@H](CC(=O)O)C(=O)N[C@@H](Cc1ccccc1)C(=O)O

$$$$
