
     RDKit          3D

 18 17  0  0  0  0  0  0  0  0999 V2000
    0.9941   -2.9994    1.2697 N   0  0  0  0  0  0  0  0  0  0  0  0
    2.2314   -2.0804    0.9490 C   0  0  1  0  0  0  0  0  0  0  0  0
    2.5133   -2.8314   -0.4884 C   0  0  0  0  0  0  0  0  0  0  0  0
    1.2139   -2.9528   -1.1676 C   0  0  0  0  0  0  0  0  0  0  0  0
    0.9160   -2.1401   -2.0898 O   0  0  0  0  0  0  0  0  0  0  0  0
    0.7299   -4.2609   -1.3146 O   0  0  0  0  0  0  0  0  0  0  0  0
    1.3284   -0.9340    0.2554 C   0  0  0  0  0  0  0  0  0  0  0  0
    2.1724   -0.2359   -0.3956 O   0  0  0  0  0  0  0  0  0  0  0  0
    0.4052   -0.2667    1.1082 N   0  0  0  0  0  0  0  0  0  0  0  0
    0.2950    1.2503    0.6646 C   0  0  1  0  0  0  0  0  0  0  0  0
   -0.7732    0.8780   -0.5275 C   0  0  0  0  0  0  0  0  0  0  0  0
   -1.9867    1.6655   -0.3911 C   0  0  0  0  0  0  0  0  0  0  0  0
   -2.1538    2.8272   -1.2927 C   0  0  0  0  0  0  0  0  0  0  0  0
   -3.3118    2.8997   -1.8160 O   0  0  0  0  0  0  0  0  0  0  0  0
   -1.6999    4.0926   -0.8943 O   0  0  0  0  0  0  0  0  0  0  0  0
   -0.8256    1.6244    1.7560 C   0  0  0  0  0  0  0  0  0  0  0  0
   -1.6357    0.8172    2.1233 O   0  0  0  0  0  0  0  0  0  0  0  0
   -0.4128    2.6467    2.6115 O   0  0  0  0  0  0  0  0  0  0  0  0
  2  1  1  1
  2  3  1  0
  3  4  1  0
  4  5  2  0
  4  6  1  0
  2  7  1  0
  7  8  2  0
  7  9  1  0
 10  9  1  1
 10 11  1  0
 11 12  1  0
 12 13  1  0
 13 14  2  0
 13 15  1  0
 10 16  1  0
 16 17  2  0
 16 18  1  0
M  END
>  <zinc_id>  (1) 
ZINC000002522589

>  <smiles>  (1) 
N[C@@H](CC(=O)O)C(=O)N[C@@H](CCC(=O)O)C(=O)O

$$$$
