
     RDKit          3D

 18 17  0  0  0  0  0  0  0  0999 V2000
    3.2947   -1.3307   -0.1357 N   0  0  0  0  0  0  0  0  0  0  0  0
    2.2746   -0.6778   -1.1689 C   0  0  2  0  0  0  0  0  0  0  0  0
    2.1245    0.7229   -0.3002 C   0  0  0  0  0  0  0  0  0  0  0  0
    3.4201    1.0929    0.2440 C   0  0  0  0  0  0  0  0  0  0  0  0
    3.5082    2.3593    0.3903 O   0  0  0  0  0  0  0  0  0  0  0  0
    3.7927    0.4787    1.4519 O   0  0  0  0  0  0  0  0  0  0  0  0
    1.0037   -1.3662   -0.4135 C   0  0  0  0  0  0  0  0  0  0  0  0
    0.8725   -2.5931   -0.6878 O   0  0  0  0  0  0  0  0  0  0  0  0
   -0.1128   -0.5820   -0.1881 N   0  0  0  0  0  0  0  0  0  0  0  0
   -1.4609   -0.9739   -0.9291 C   0  0  2  0  0  0  0  0  0  0  0  0
   -2.3209    0.1553   -0.0622 C   0  0  0  0  0  0  0  0  0  0  0  0
   -2.1383    1.4132   -0.8803 C   0  0  0  0  0  0  0  0  0  0  0  0
   -2.5394    2.5429    0.0146 C   0  0  0  0  0  0  0  0  0  0  0  0
   -3.6727    2.3775    0.5575 O   0  0  0  0  0  0  0  0  0  0  0  0
   -1.5467    3.0724    0.8445 O   0  0  0  0  0  0  0  0  0  0  0  0
   -1.8169   -2.1606    0.1274 C   0  0  0  0  0  0  0  0  0  0  0  0
   -1.5803   -1.9358    1.3152 O   0  0  0  0  0  0  0  0  0  0  0  0
   -3.1020   -2.5950   -0.1796 O   0  0  0  0  0  0  0  0  0  0  0  0
  2  1  1  1
  2  3  1  0
  3  4  1  0
  4  5  2  0
  4  6  1  0
  2  7  1  0
  7  8  2  0
  7  9  1  0
 10  9  1  1
 10 11  1  0
 11 12  1  0
 12 13  1  0
 13 14  2  0
 13 15  1  0
 10 16  1  0
 16 17  2  0
 16 18  1  0
M  END
>  <zinc_id>  (1) 
ZINC000004533739

>  <smiles>  (1) 
N[C@H](CC(=O)O)C(=O)N[C@H](CCC(=O)O)C(=O)O

$$$$
