REMARK  Name = 
REMARK  8 active torsions:
REMARK  status: ('A' for Active; 'I' for Inactive)
REMARK    1  A    between atoms: CD_2  and  CG_4
REMARK    2  A    between atoms: CG_4  and  CB_5
REMARK    3  A    between atoms: CB_5  and  CA_6
REMARK    4  A    between atoms: CA_6  and  N_7
REMARK    5  A    between atoms: CA_6  and  C_16
REMARK    6  A    between atoms: C_8  and  CA_10
REMARK    7  A    between atoms: CA_10  and  CB_12
REMARK    8  A    between atoms: CB_12  and  CG_13
REMARK                            x       y       z     vdW  Elec       q    Type
REMARK                         _______ _______ _______ _____ _____    ______ ____
ROOT
ATOM      6  CA  GLN A   2      -0.664  -0.900  -1.117  0.00  0.00    +0.000 C 
ENDROOT
BRANCH   6   7
ATOM      7  N   GLN A   2       0.000  -0.054   0.071  0.00  0.00    +0.000 NA
ATOM      8  C   ASP A   1       0.830  -0.640   0.963  0.00  0.00    +0.000 C 
ATOM      9  O   ASP A   1       0.513  -1.768   1.367  0.00  0.00    +0.000 OA
BRANCH   8  10
ATOM     10  CA  ASP A   1       2.446  -0.370   0.872  0.00  0.00    +0.000 C 
ATOM     11  N   ASP A   1       2.565  -0.323   2.472  0.00  0.00    +0.000 NA
BRANCH  10  12
ATOM     12  CB  ASP A   1       2.217   1.287   0.805  0.00  0.00    +0.000 C 
BRANCH  12  13
ATOM     13  CG  ASP A   1       3.078   1.687  -0.352  0.00  0.00    +0.000 C 
ATOM     14  OD1 ASP A   1       3.413   0.912  -1.267  0.00  0.00    +0.000 OA
ATOM     15  OD2 ASP A   1       3.272   3.036  -0.537  0.00  0.00    +0.000 OA
ENDBRANCH  12  13
ENDBRANCH  10  12
ENDBRANCH   8  10
ENDBRANCH   6   7
BRANCH   6  16
ATOM     16  C   GLN A   2      -0.561  -2.378  -0.389  0.00  0.00    +0.000 C 
ATOM     17  O   GLN A   2       0.322  -2.963  -1.112  0.00  0.00    +0.000 OA
ATOM     18  OXT GLN A   2      -1.746  -3.124  -0.524  0.00  0.00    +0.000 OA
ENDBRANCH   6  16
BRANCH   6   5
ATOM      5  CB  GLN A   2      -2.192  -0.602  -0.491  0.00  0.00    +0.000 C 
BRANCH   5   4
ATOM      4  CG  GLN A   2      -2.198   0.886  -0.661  0.00  0.00    +0.000 C 
BRANCH   4   2
ATOM      1  NE2 GLN A   2      -3.496   2.907  -0.231  0.00  0.00    +0.000 NA
ATOM      2  CD  GLN A   2      -3.460   1.510  -0.252  0.00  0.00    +0.000 C 
ATOM      3  OE1 GLN A   2      -4.340   0.899   0.384  0.00  0.00    +0.000 OA
ENDBRANCH   4   2
ENDBRANCH   5   4
ENDBRANCH   6   5
TORSDOF 8
