
     RDKit          3D

 10  9  0  0  0  0  0  0  0  0999 V2000
   -2.2003    1.1660    0.9906 N   0  0  0  0  0  0  0  0  0  0  0  0
   -1.3366    0.8393   -0.2886 C   0  0  1  0  0  0  0  0  0  0  0  0
    0.0451    1.2474    0.5043 C   0  0  0  0  0  0  0  0  0  0  0  0
    1.0582    0.2470    0.1715 C   0  0  0  0  0  0  0  0  0  0  0  0
    1.2133   -0.7800    1.1197 O   0  0  0  0  0  0  0  0  0  0  0  0
    2.0839    0.5492   -0.5355 N   0  0  0  0  0  0  0  0  0  0  0  0
    3.3557    0.1008   -0.3178 O   0  0  0  0  0  0  0  0  0  0  0  0
   -1.2045   -0.7301    0.0735 C   0  0  0  0  0  0  0  0  0  0  0  0
   -2.2866   -1.2901    0.4320 O   0  0  0  0  0  0  0  0  0  0  0  0
   -0.7282   -1.3495   -1.0966 O   0  0  0  0  0  0  0  0  0  0  0  0
  2  1  1  1
  2  3  1  0
  3  4  1  0
  4  5  1  0
  4  6  2  0
  6  7  1  0
  2  8  1  0
  8  9  2  0
  8 10  1  0
M  END
>  <zinc_id>  (1) 
ZINC000002545150

>  <smiles>  (1) 
N[C@@H](C/C(O)=N/O)C(=O)O

$$$$
