
     RDKit          3D

 18 17  0  0  0  0  0  0  0  0999 V2000
    4.6558    0.2633    0.3810 N   0  0  0  0  0  0  0  0  0  0  0  0
    4.0644    0.4175   -0.4508 C   0  0  0  0  0  0  0  0  0  0  0  0
    4.0411    1.5087   -1.1020 O   0  0  0  0  0  0  0  0  0  0  0  0
    3.0787   -0.5805   -0.9834 C   0  0  0  0  0  0  0  0  0  0  0  0
    1.9623   -0.6325    0.0487 C   0  0  0  0  0  0  0  0  0  0  0  0
    0.7841    0.1614   -0.7811 C   0  0  1  0  0  0  0  0  0  0  0  0
   -0.3227   -0.2946    0.2429 N   0  0  0  0  0  0  0  0  0  0  0  0
   -1.1253   -1.2495   -0.3800 C   0  0  0  0  0  0  0  0  0  0  0  0
   -0.6642   -2.1273   -1.1494 O   0  0  0  0  0  0  0  0  0  0  0  0
   -2.4266   -1.7924    0.3951 C   0  0  1  0  0  0  0  0  0  0  0  0
   -1.6459   -1.9868    1.7518 N   0  0  0  0  0  0  0  0  0  0  0  0
   -2.9191   -0.2793    0.8149 C   0  0  0  0  0  0  0  0  0  0  0  0
   -3.7407    0.1740   -0.3444 C   0  0  0  0  0  0  0  0  0  0  0  0
   -4.5365   -0.6424   -0.8601 O   0  0  0  0  0  0  0  0  0  0  0  0
   -3.8372    1.5223   -0.6145 O   0  0  0  0  0  0  0  0  0  0  0  0
    1.0609    1.5476   -0.0072 C   0  0  0  0  0  0  0  0  0  0  0  0
    0.4172    2.4534   -0.5888 O   0  0  0  0  0  0  0  0  0  0  0  0
    1.1538    1.5370    1.3483 O   0  0  0  0  0  0  0  0  0  0  0  0
  1  2  1  0
  2  3  2  0
  2  4  1  0
  4  5  1  0
  6  5  1  1
  6  7  1  0
  7  8  1  0
  8  9  2  0
 10  8  1  6
 10 11  1  0
 10 12  1  0
 12 13  1  0
 13 14  2  0
 13 15  1  0
  6 16  1  0
 16 17  2  0
 16 18  1  0
M  END
>  <zinc_id>  (1) 
ZINC000004533737

>  <smiles>  (1) 
NC(=O)CC[C@@H](NC(=O)[C@@H](N)CC(=O)O)C(=O)O

$$$$
