
     RDKit          3D

 14 13  0  0  0  0  0  0  0  0999 V2000
   -2.7415   -2.2245   -0.8270 C   0  0  0  0  0  0  0  0  0  0  0  0
   -2.1189   -1.3959    0.4917 C   0  0  1  0  0  0  0  0  0  0  0  0
   -1.0354   -0.6359   -0.4165 N   0  0  0  0  0  0  0  0  0  0  0  0
    0.0326   -0.2870    0.4541 C   0  0  0  0  0  0  0  0  0  0  0  0
   -0.3087    0.3041    1.5266 O   0  0  0  0  0  0  0  0  0  0  0  0
    1.1655    0.6789   -0.2380 C   0  0  2  0  0  0  0  0  0  0  0  0
    1.3072   -0.2800   -1.5186 N   0  0  0  0  0  0  0  0  0  0  0  0
    2.3989   -0.1407    0.5468 C   0  0  0  0  0  0  0  0  0  0  0  0
    3.5519    0.7837    0.3503 C   0  0  0  0  0  0  0  0  0  0  0  0
    3.6224    1.8429    1.0040 O   0  0  0  0  0  0  0  0  0  0  0  0
    4.0984    0.7966   -0.9214 O   0  0  0  0  0  0  0  0  0  0  0  0
   -3.2169   -0.1858    0.3302 C   0  0  0  0  0  0  0  0  0  0  0  0
   -3.3816    0.2448   -0.8113 O   0  0  0  0  0  0  0  0  0  0  0  0
   -3.3738    0.4986    1.5142 O   0  0  0  0  0  0  0  0  0  0  0  0
  2  1  1  6
  2  3  1  0
  3  4  1  0
  4  5  2  0
  6  4  1  1
  6  7  1  0
  6  8  1  0
  8  9  1  0
  9 10  2  0
  9 11  1  0
  2 12  1  0
 12 13  2  0
 12 14  1  0
M  END
>  <zinc_id>  (1) 
ZINC000004523462

>  <smiles>  (1) 
C[C@@H](NC(=O)[C@H](N)CC(=O)O)C(=O)O

$$$$
