REMARK  Name = 
REMARK  8 active torsions:
REMARK  status: ('A' for Active; 'I' for Inactive)
REMARK    1  A    between atoms: CA_2  and  CB_3
REMARK    2  A    between atoms: CA_2  and  C_7
REMARK    3  A    between atoms: CB_3  and  CG_4
REMARK    4  A    between atoms: N_9  and  CA_10
REMARK    5  A    between atoms: CA_10  and  CB_11
REMARK    6  A    between atoms: CA_10  and  C_16
REMARK    7  A    between atoms: CB_11  and  CG_12
REMARK    8  A    between atoms: CG_12  and  CD_13
REMARK                            x       y       z     vdW  Elec       q    Type
REMARK                         _______ _______ _______ _____ _____    ______ ____
ROOT
ATOM      7  C   ASP A   1      -1.139   0.119  -0.173  0.00  0.00    +0.000 C 
ATOM      8  O   ASP A   1      -0.970   1.306  -0.580  0.00  0.00    +0.000 OA
ATOM      9  N   GLU A   2      -0.115  -0.557   0.520  0.00  0.00    +0.000 NA
ENDROOT
BRANCH   7   2
ATOM      1  N   ASP A   1      -2.549  -1.555   0.563  0.00  0.00    +0.000 NA
ATOM      2  CA  ASP A   1      -2.621   0.013   0.450  0.00  0.00    +0.000 C 
BRANCH   2   3
ATOM      3  CB  ASP A   1      -3.297  -0.073  -1.048  0.00  0.00    +0.000 C 
BRANCH   3   4
ATOM      4  CG  ASP A   1      -4.495   0.797  -0.815  0.00  0.00    +0.000 C 
ATOM      5  OD1 ASP A   1      -4.235   1.990  -0.471  0.00  0.00    +0.000 OA
ATOM      6  OD2 ASP A   1      -5.498   0.186  -0.054  0.00  0.00    +0.000 OA
ENDBRANCH   3   4
ENDBRANCH   2   3
ENDBRANCH   7   2
BRANCH   9  10
ATOM     10  CA  GLU A   2       1.214  -0.291  -0.286  0.00  0.00    +0.000 C 
BRANCH  10  16
ATOM     16  C   GLU A   2       1.944  -1.593   0.323  0.00  0.00    +0.000 C 
ATOM     17  O   GLU A   2       2.018  -1.702   1.541  0.00  0.00    +0.000 OA
ATOM     18  OXT GLU A   2       1.542  -2.764  -0.339  0.00  0.00    +0.000 OA
ENDBRANCH  10  16
BRANCH  10  11
ATOM     11  CB  GLU A   2       1.773   0.736   0.872  0.00  0.00    +0.000 C 
BRANCH  11  12
ATOM     12  CG  GLU A   2       3.237   0.471   1.006  0.00  0.00    +0.000 C 
BRANCH  12  13
ATOM     13  CD  GLU A   2       4.006   1.040  -0.144  0.00  0.00    +0.000 C 
ATOM     14  OE1 GLU A   2       5.009   1.740   0.193  0.00  0.00    +0.000 OA
ATOM     15  OE2 GLU A   2       4.177   0.137  -1.198  0.00  0.00    +0.000 OA
ENDBRANCH  12  13
ENDBRANCH  11  12
ENDBRANCH  10  11
ENDBRANCH   9  10
TORSDOF 8
