
     RDKit          3D

 14 13  0  0  0  0  0  0  0  0999 V2000
   -3.3204   -1.3121    1.0154 C   0  0  0  0  0  0  0  0  0  0  0  0
   -2.1045   -0.2275    1.3274 C   0  0  1  0  0  0  0  0  0  0  0  0
   -1.1187   -0.9534    0.3160 N   0  0  0  0  0  0  0  0  0  0  0  0
    0.1715   -0.3762    0.2278 C   0  0  0  0  0  0  0  0  0  0  0  0
    0.5070    0.3501    1.2181 O   0  0  0  0  0  0  0  0  0  0  0  0
    1.4034   -1.4302    0.0777 C   0  0  1  0  0  0  0  0  0  0  0  0
    0.6696   -2.2462   -1.0715 N   0  0  0  0  0  0  0  0  0  0  0  0
    2.1669   -0.4604   -1.0318 C   0  0  0  0  0  0  0  0  0  0  0  0
    2.8307    0.5751   -0.1766 C   0  0  0  0  0  0  0  0  0  0  0  0
    2.4902    1.7822   -0.2984 O   0  0  0  0  0  0  0  0  0  0  0  0
    4.1873    0.3696    0.0465 O   0  0  0  0  0  0  0  0  0  0  0  0
   -2.6259    0.7982    0.1731 C   0  0  0  0  0  0  0  0  0  0  0  0
   -3.6458    1.4504    0.5626 O   0  0  0  0  0  0  0  0  0  0  0  0
   -1.6114    1.6803   -0.2297 O   0  0  0  0  0  0  0  0  0  0  0  0
  2  1  1  6
  2  3  1  0
  3  4  1  0
  4  5  2  0
  6  4  1  1
  6  7  1  0
  6  8  1  0
  8  9  1  0
  9 10  2  0
  9 11  1  0
  2 12  1  0
 12 13  2  0
 12 14  1  0
M  END
>  <zinc_id>  (1) 
ZINC000004523463

>  <smiles>  (1) 
C[C@@H](NC(=O)[C@@H](N)CC(=O)O)C(=O)O

$$$$
