REMARK  Name = 
REMARK  8 active torsions:
REMARK  status: ('A' for Active; 'I' for Inactive)
REMARK    1  A    between atoms: CA_2  and  CB_3
REMARK    2  A    between atoms: CA_2  and  C_7
REMARK    3  A    between atoms: CB_3  and  CG_4
REMARK    4  A    between atoms: N_9  and  CA_10
REMARK    5  A    between atoms: CA_10  and  CB_11
REMARK    6  A    between atoms: CA_10  and  C_16
REMARK    7  A    between atoms: CB_11  and  CG_12
REMARK    8  A    between atoms: CG_12  and  CD_13
REMARK                            x       y       z     vdW  Elec       q    Type
REMARK                         _______ _______ _______ _____ _____    ______ ____
ROOT
ATOM      7  C   ASP A   1       1.328  -0.934   0.255  0.00  0.00    +0.000 C 
ATOM      8  O   ASP A   1       2.172  -0.236  -0.396  0.00  0.00    +0.000 OA
ATOM      9  N   GLU A   2       0.405  -0.267   1.108  0.00  0.00    +0.000 NA
ENDROOT
BRANCH   7   2
ATOM      1  N   ASP A   1       0.994  -2.999   1.270  0.00  0.00    +0.000 NA
ATOM      2  CA  ASP A   1       2.231  -2.080   0.949  0.00  0.00    +0.000 C 
BRANCH   2   3
ATOM      3  CB  ASP A   1       2.513  -2.831  -0.488  0.00  0.00    +0.000 C 
BRANCH   3   4
ATOM      4  CG  ASP A   1       1.214  -2.953  -1.168  0.00  0.00    +0.000 C 
ATOM      5  OD1 ASP A   1       0.916  -2.140  -2.090  0.00  0.00    +0.000 OA
ATOM      6  OD2 ASP A   1       0.730  -4.261  -1.315  0.00  0.00    +0.000 OA
ENDBRANCH   3   4
ENDBRANCH   2   3
ENDBRANCH   7   2
BRANCH   9  10
ATOM     10  CA  GLU A   2       0.295   1.250   0.665  0.00  0.00    +0.000 C 
BRANCH  10  16
ATOM     16  C   GLU A   2      -0.826   1.624   1.756  0.00  0.00    +0.000 C 
ATOM     17  O   GLU A   2      -1.636   0.817   2.123  0.00  0.00    +0.000 OA
ATOM     18  OXT GLU A   2      -0.413   2.647   2.611  0.00  0.00    +0.000 OA
ENDBRANCH  10  16
BRANCH  10  11
ATOM     11  CB  GLU A   2      -0.773   0.878  -0.527  0.00  0.00    +0.000 C 
BRANCH  11  12
ATOM     12  CG  GLU A   2      -1.987   1.665  -0.391  0.00  0.00    +0.000 C 
BRANCH  12  13
ATOM     13  CD  GLU A   2      -2.154   2.827  -1.293  0.00  0.00    +0.000 C 
ATOM     14  OE1 GLU A   2      -3.312   2.900  -1.816  0.00  0.00    +0.000 OA
ATOM     15  OE2 GLU A   2      -1.700   4.093  -0.894  0.00  0.00    +0.000 OA
ENDBRANCH  12  13
ENDBRANCH  11  12
ENDBRANCH  10  11
ENDBRANCH   9  10
TORSDOF 8
