REMARK  Name = 
REMARK  7 active torsions:
REMARK  status: ('A' for Active; 'I' for Inactive)
REMARK    1  A    between atoms: CG_2  and  CB_4
REMARK    2  A    between atoms: CB_4  and  CA_5
REMARK    3  A    between atoms: CA_5  and  N_6
REMARK    4  A    between atoms: CA_5  and  C_15
REMARK    5  A    between atoms: C_7  and  CA_9
REMARK    6  A    between atoms: CA_9  and  CB_11
REMARK    7  A    between atoms: CB_11  and  CG_12
REMARK                            x       y       z     vdW  Elec       q    Type
REMARK                         _______ _______ _______ _____ _____    ______ ____
ROOT
ATOM      6  N   LEU A   2      -0.601   0.818  -0.587  0.00  0.00    +0.000 NA
ATOM      7  C   ASP A   1       0.447   0.027  -0.938  0.00  0.00    +0.000 C 
ATOM      8  O   ASP A   1       0.268  -1.168  -0.921  0.00  0.00    +0.000 OA
ENDROOT
BRANCH   7   9
ATOM      9  CA  ASP A   1       1.679   0.692  -0.120  0.00  0.00    +0.000 C 
ATOM     10  N   ASP A   1       1.701  -0.436   0.984  0.00  0.00    +0.000 NA
BRANCH   9  11
ATOM     11  CB  ASP A   1       2.894  -0.029  -0.960  0.00  0.00    +0.000 C 
BRANCH  11  12
ATOM     12  CG  ASP A   1       4.058   0.436  -0.137  0.00  0.00    +0.000 C 
ATOM     13  OD1 ASP A   1       4.056   1.508   0.541  0.00  0.00    +0.000 OA
ATOM     14  OD2 ASP A   1       5.203  -0.337   0.062  0.00  0.00    +0.000 OA
ENDBRANCH  11  12
ENDBRANCH   9  11
ENDBRANCH   7   9
BRANCH   6   5
ATOM      5  CA  LEU A   2      -2.096   0.406  -0.426  0.00  0.00    +0.000 C 
BRANCH   5  15
ATOM     15  C   LEU A   2      -2.042  -0.887  -1.399  0.00  0.00    +0.000 C 
ATOM     16  O   LEU A   2      -3.171  -1.446  -1.178  0.00  0.00    +0.000 OA
ATOM     17  OXT LEU A   2      -2.002  -0.429  -2.725  0.00  0.00    +0.000 OA
ENDBRANCH   5  15
BRANCH   5   4
ATOM      4  CB  LEU A   2      -1.849  -0.522   0.916  0.00  0.00    +0.000 C 
BRANCH   4   2
ATOM      1  CD1 LEU A   2      -3.565   1.193   1.597  0.00  0.00    +0.000 C 
ATOM      2  CG  LEU A   2      -2.359   0.395   1.985  0.00  0.00    +0.000 C 
ATOM      3  CD2 LEU A   2      -2.623  -0.220   3.305  0.00  0.00    +0.000 C 
ENDBRANCH   4   2
ENDBRANCH   5   4
ENDBRANCH   6   5
TORSDOF 7
