
     RDKit          3D

 20 19  0  0  0  0  0  0  0  0999 V2000
   -4.7109   -0.4710    0.4107 N   0  0  0  0  0  0  0  0  0  0  0  0
   -4.9757    0.1510    0.7441 C   0  0  0  0  0  0  0  0  0  0  0  0
   -6.1057    0.0967    1.6358 N   0  0  0  0  0  0  0  0  0  0  0  0
   -4.3685    1.4346    0.5032 N   0  0  0  0  0  0  0  0  0  0  0  0
   -2.9129    1.4511    0.3791 C   0  0  0  0  0  0  0  0  0  0  0  0
   -2.4917    0.6267   -0.8173 C   0  0  0  0  0  0  0  0  0  0  0  0
   -0.9967    0.4948   -0.8886 C   0  0  0  0  0  0  0  0  0  0  0  0
   -0.6010    0.0527    0.6417 C   0  0  2  0  0  0  0  0  0  0  0  0
    0.9394   -0.0562    0.3903 N   0  0  0  0  0  0  0  0  0  0  0  0
    1.5936    0.7209   -0.5404 C   0  0  0  0  0  0  0  0  0  0  0  0
    0.9160    1.0893   -1.5480 O   0  0  0  0  0  0  0  0  0  0  0  0
    2.9848   -0.0013   -0.9281 C   0  0  1  0  0  0  0  0  0  0  0  0
    3.4830    1.2311   -1.7666 N   0  0  0  0  0  0  0  0  0  0  0  0
    3.7282    0.5464    0.4271 C   0  0  0  0  0  0  0  0  0  0  0  0
    5.0379   -0.1516    0.3573 C   0  0  0  0  0  0  0  0  0  0  0  0
    5.7941   -0.2060    1.3737 O   0  0  0  0  0  0  0  0  0  0  0  0
    5.5691   -0.6794   -0.8096 O   0  0  0  0  0  0  0  0  0  0  0  0
   -0.8330   -1.5083    0.3222 C   0  0  0  0  0  0  0  0  0  0  0  0
   -1.7969   -2.0407    0.8958 O   0  0  0  0  0  0  0  0  0  0  0  0
   -0.2531   -2.0496   -0.7825 O   0  0  0  0  0  0  0  0  0  0  0  0
  1  2  2  0
  2  3  1  0
  2  4  1  0
  4  5  1  0
  5  6  1  0
  6  7  1  0
  8  7  1  6
  8  9  1  0
  9 10  1  0
 10 11  2  0
 12 10  1  1
 12 13  1  0
 12 14  1  0
 14 15  1  0
 15 16  2  0
 15 17  1  0
  8 18  1  0
 18 19  2  0
 18 20  1  0
M  END
>  <zinc_id>  (1) 
ZINC000002564466

>  <smiles>  (1) 
N=C(N)NCCC[C@H](NC(=O)[C@@H](N)CC(=O)O)C(=O)O

$$$$
