
     RDKit          3D

 16 16  0  0  0  0  0  0  0  0999 V2000
    1.0790    2.0736   -0.3462 N   0  0  0  0  0  0  0  0  0  0  0  0
    1.7506    0.7506   -0.8768 C   0  0  1  0  0  0  0  0  0  0  0  0
    1.9161    0.1398    0.6398 C   0  0  0  0  0  0  0  0  0  0  0  0
    3.2733   -0.4674    0.5810 C   0  0  0  0  0  0  0  0  0  0  0  0
    3.6623   -1.0829   -0.4476 O   0  0  0  0  0  0  0  0  0  0  0  0
    4.0776   -0.6155    1.7150 O   0  0  0  0  0  0  0  0  0  0  0  0
    0.3440    0.0059   -1.1065 C   0  0  0  0  0  0  0  0  0  0  0  0
    0.3696   -0.9006   -1.9806 O   0  0  0  0  0  0  0  0  0  0  0  0
   -0.6876    0.1767   -0.1806 N   0  0  0  0  0  0  0  0  0  0  0  0
   -0.6861    0.6224    1.1215 C   0  0  0  0  0  0  0  0  0  0  0  0
   -1.9561    1.2455    1.4726 C   0  0  0  0  0  0  0  0  0  0  0  0
   -2.6674    1.4513    0.2491 C   0  0  0  0  0  0  0  0  0  0  0  0
   -2.0909    0.3888   -0.8527 C   0  0  2  0  0  0  0  0  0  0  0  0
   -2.7602   -0.8877   -0.1330 C   0  0  0  0  0  0  0  0  0  0  0  0
   -3.1285   -1.7301   -1.0069 O   0  0  0  0  0  0  0  0  0  0  0  0
   -2.4959   -1.1706    1.1520 O   0  0  0  0  0  0  0  0  0  0  0  0
  2  1  1  1
  2  3  1  0
  3  4  1  0
  4  5  2  0
  4  6  1  0
  2  7  1  0
  7  8  2  0
  7  9  1  0
  9 10  1  0
 10 11  1  0
 11 12  1  0
 12 13  1  0
 13 14  1  1
 14 15  2  0
 14 16  1  0
 13  9  1  0
M  END
>  <zinc_id>  (1) 
ZINC000002564465

>  <smiles>  (1) 
N[C@@H](CC(=O)O)C(=O)N1CCC[C@@H]1C(=O)O

$$$$
