REMARK  Name = 
REMARK  8 active torsions:
REMARK  status: ('A' for Active; 'I' for Inactive)
REMARK    1  A    between atoms: CD_2  and  CG_4
REMARK    2  A    between atoms: CG_4  and  CB_5
REMARK    3  A    between atoms: CB_5  and  CA_6
REMARK    4  A    between atoms: CA_6  and  N_7
REMARK    5  A    between atoms: CA_6  and  C_16
REMARK    6  A    between atoms: C_8  and  CA_10
REMARK    7  A    between atoms: CA_10  and  CB_12
REMARK    8  A    between atoms: CB_12  and  CG_13
REMARK                            x       y       z     vdW  Elec       q    Type
REMARK                         _______ _______ _______ _____ _____    ______ ____
ROOT
ATOM      6  CA  GLN A   2       0.784   0.161  -0.781  0.00  0.00    +0.000 C 
ENDROOT
BRANCH   6   7
ATOM      7  N   GLN A   2      -0.323  -0.295   0.243  0.00  0.00    +0.000 NA
ATOM      8  C   ASP A   1      -1.125  -1.250  -0.380  0.00  0.00    +0.000 C 
ATOM      9  O   ASP A   1      -0.664  -2.127  -1.149  0.00  0.00    +0.000 OA
BRANCH   8  10
ATOM     10  CA  ASP A   1      -2.427  -1.792   0.395  0.00  0.00    +0.000 C 
ATOM     11  N   ASP A   1      -1.646  -1.987   1.752  0.00  0.00    +0.000 NA
BRANCH  10  12
ATOM     12  CB  ASP A   1      -2.919  -0.279   0.815  0.00  0.00    +0.000 C 
BRANCH  12  13
ATOM     13  CG  ASP A   1      -3.741   0.174  -0.344  0.00  0.00    +0.000 C 
ATOM     14  OD1 ASP A   1      -4.537  -0.642  -0.860  0.00  0.00    +0.000 OA
ATOM     15  OD2 ASP A   1      -3.837   1.522  -0.615  0.00  0.00    +0.000 OA
ENDBRANCH  12  13
ENDBRANCH  10  12
ENDBRANCH   8  10
ENDBRANCH   6   7
BRANCH   6  16
ATOM     16  C   GLN A   2       1.061   1.548  -0.007  0.00  0.00    +0.000 C 
ATOM     17  O   GLN A   2       0.417   2.453  -0.589  0.00  0.00    +0.000 OA
ATOM     18  OXT GLN A   2       1.154   1.537   1.348  0.00  0.00    +0.000 OA
ENDBRANCH   6  16
BRANCH   6   5
ATOM      5  CB  GLN A   2       1.962  -0.632   0.049  0.00  0.00    +0.000 C 
BRANCH   5   4
ATOM      4  CG  GLN A   2       3.079  -0.581  -0.983  0.00  0.00    +0.000 C 
BRANCH   4   2
ATOM      1  NE2 GLN A   2       4.656   0.263   0.381  0.00  0.00    +0.000 NA
ATOM      2  CD  GLN A   2       4.064   0.417  -0.451  0.00  0.00    +0.000 C 
ATOM      3  OE1 GLN A   2       4.041   1.509  -1.102  0.00  0.00    +0.000 OA
ENDBRANCH   4   2
ENDBRANCH   5   4
ENDBRANCH   6   5
TORSDOF 8
