
     RDKit          3D

 18 17  0  0  0  0  0  0  0  0999 V2000
   -5.0482    2.1915    0.5609 N   0  0  0  0  0  0  0  0  0  0  0  0
   -4.7636    1.4864    0.4145 C   0  0  0  0  0  0  0  0  0  0  0  0
   -3.8148    0.8936   -0.6131 C   0  0  0  0  0  0  0  0  0  0  0  0
   -3.4026   -0.5159   -0.2642 C   0  0  0  0  0  0  0  0  0  0  0  0
   -2.1274   -0.4359    0.5729 C   0  0  0  0  0  0  0  0  0  0  0  0
   -1.0244   -0.9561   -0.5654 C   0  0  1  0  0  0  0  0  0  0  0  0
    0.1967   -0.5784    0.3900 N   0  0  0  0  0  0  0  0  0  0  0  0
    1.4412   -0.7609   -0.3064 C   0  0  0  0  0  0  0  0  0  0  0  0
    1.4558   -0.3147   -1.4666 O   0  0  0  0  0  0  0  0  0  0  0  0
    2.5876   -0.1646    0.6948 C   0  0  1  0  0  0  0  0  0  0  0  0
    3.7362   -0.2763   -0.4096 N   0  0  0  0  0  0  0  0  0  0  0  0
    2.2335    1.4052    0.2623 C   0  0  0  0  0  0  0  0  0  0  0  0
    3.5314    2.0990    0.2610 C   0  0  0  0  0  0  0  0  0  0  0  0
    4.4628    1.6624    0.9889 O   0  0  0  0  0  0  0  0  0  0  0  0
    3.8156    2.9193   -0.8122 O   0  0  0  0  0  0  0  0  0  0  0  0
   -0.9967   -2.4944   -0.0203 C   0  0  0  0  0  0  0  0  0  0  0  0
   -2.0004   -2.9302    0.5032 O   0  0  0  0  0  0  0  0  0  0  0  0
   -0.2825   -3.2301   -0.9685 O   0  0  0  0  0  0  0  0  0  0  0  0
  1  2  1  0
  2  3  1  0
  3  4  1  0
  4  5  1  0
  6  5  1  1
  6  7  1  0
  7  8  1  0
  8  9  2  0
 10  8  1  6
 10 11  1  0
 10 12  1  0
 12 13  1  0
 13 14  2  0
 13 15  1  0
  6 16  1  0
 16 17  2  0
 16 18  1  0
M  END
>  <zinc_id>  (1) 
ZINC000004533727

>  <smiles>  (1) 
NCCCC[C@@H](NC(=O)[C@@H](N)CC(=O)O)C(=O)O

$$$$
