REMARK  Name = 
REMARK  5 active torsions:
REMARK  status: ('A' for Active; 'I' for Inactive)
REMARK    1  A    between atoms: CA_2  and  N_3
REMARK    2  A    between atoms: CA_2  and  C_12
REMARK    3  A    between atoms: C_4  and  CA_6
REMARK    4  A    between atoms: CA_6  and  CB_8
REMARK    5  A    between atoms: CB_8  and  CG_9
REMARK                            x       y       z     vdW  Elec       q    Type
REMARK                         _______ _______ _______ _____ _____    ______ ____
ROOT
ATOM      3  N   ALA A   2      -1.141  -0.395   0.436  0.00  0.00    +0.000 NA
ATOM      4  C   ASP A   1       0.093   0.278   0.726  0.00  0.00    +0.000 C 
ATOM      5  O   ASP A   1       0.037   1.477   1.010  0.00  0.00    +0.000 OA
ENDROOT
BRANCH   3   2
ATOM      1  CB  ALA A   2      -2.698  -0.262  -1.294  0.00  0.00    +0.000 C 
ATOM      2  CA  ALA A   2      -2.350   0.587   0.096  0.00  0.00    +0.000 C 
BRANCH   2  12
ATOM     12  C   ALA A   2      -3.449  -0.285   0.929  0.00  0.00    +0.000 C 
ATOM     13  O   ALA A   2      -3.064  -0.789   1.983  0.00  0.00    +0.000 OA
ATOM     14  OXT ALA A   2      -4.731   0.222   0.697  0.00  0.00    +0.000 OA
ENDBRANCH   2  12
ENDBRANCH   3   2
BRANCH   4   6
ATOM      6  CA  ASP A   1       1.296  -0.167  -0.286  0.00  0.00    +0.000 C 
ATOM      7  N   ASP A   1       1.817  -1.270   0.742  0.00  0.00    +0.000 NA
BRANCH   6   8
ATOM      8  CB  ASP A   1       2.378   0.951   0.309  0.00  0.00    +0.000 C 
BRANCH   8   9
ATOM      9  CG  ASP A   1       3.692   0.284   0.196  0.00  0.00    +0.000 C 
ATOM     10  OD1 ASP A   1       4.157  -0.314   1.206  0.00  0.00    +0.000 OA
ATOM     11  OD2 ASP A   1       3.964  -0.317  -1.035  0.00  0.00    +0.000 OA
ENDBRANCH   8   9
ENDBRANCH   6   8
ENDBRANCH   4   6
TORSDOF 5
