REMARK  Name = 
REMARK  9 active torsions:
REMARK  status: ('A' for Active; 'I' for Inactive)
REMARK    1  A    between atoms: CE_2  and  CD_3
REMARK    2  A    between atoms: CD_3  and  CG_4
REMARK    3  A    between atoms: CG_4  and  CB_5
REMARK    4  A    between atoms: CB_5  and  CA_6
REMARK    5  A    between atoms: CA_6  and  N_7
REMARK    6  A    between atoms: CA_6  and  C_16
REMARK    7  A    between atoms: C_8  and  CA_10
REMARK    8  A    between atoms: CA_10  and  CB_12
REMARK    9  A    between atoms: CB_12  and  CG_13
REMARK                            x       y       z     vdW  Elec       q    Type
REMARK                         _______ _______ _______ _____ _____    ______ ____
ROOT
ATOM      6  CA  LYS A   2      -0.805  -0.667   0.636  0.00  0.00    +0.000 C 
ENDROOT
BRANCH   6   7
ATOM      7  N   LYS A   2       0.526  -0.049   0.013  0.00  0.00    +0.000 NA
ATOM      8  C   ASP A   1       1.391  -1.160  -0.278  0.00  0.00    +0.000 C 
ATOM      9  O   ASP A   1       0.957  -1.898  -1.216  0.00  0.00    +0.000 OA
BRANCH   8  10
ATOM     10  CA  ASP A   1       2.849  -0.558  -0.698  0.00  0.00    +0.000 C 
ATOM     11  N   ASP A   1       3.518  -2.004  -0.678  0.00  0.00    +0.000 NA
BRANCH  10  12
ATOM     12  CB  ASP A   1       3.263  -0.291   0.890  0.00  0.00    +0.000 C 
BRANCH  12  13
ATOM     13  CG  ASP A   1       3.796   1.106   0.886  0.00  0.00    +0.000 C 
ATOM     14  OD1 ASP A   1       2.940   2.029   0.923  0.00  0.00    +0.000 OA
ATOM     15  OD2 ASP A   1       4.973   1.324   1.588  0.00  0.00    +0.000 OA
ENDBRANCH  12  13
ENDBRANCH  10  12
ENDBRANCH   8  10
ENDBRANCH   6   7
BRANCH   6  16
ATOM     16  C   LYS A   2      -1.385  -1.073  -0.832  0.00  0.00    +0.000 C 
ATOM     17  O   LYS A   2      -1.381  -0.200  -1.692  0.00  0.00    +0.000 OA
ATOM     18  OXT LYS A   2      -1.875  -2.352  -0.920  0.00  0.00    +0.000 OA
ENDBRANCH   6  16
BRANCH   6   5
ATOM      5  CB  LYS A   2      -1.568   0.813   0.645  0.00  0.00    +0.000 C 
BRANCH   5   4
ATOM      4  CG  LYS A   2      -2.952   0.522   0.195  0.00  0.00    +0.000 C 
BRANCH   4   3
ATOM      3  CD  LYS A   2      -4.064   1.147   0.955  0.00  0.00    +0.000 C 
BRANCH   3   2
ATOM      1  NZ  LYS A   2      -5.088   1.765  -0.470  0.00  0.00    +0.000 NA
ATOM      2  CE  LYS A   2      -5.096   1.546  -0.101  0.00  0.00    +0.000 C 
ENDBRANCH   3   2
ENDBRANCH   4   3
ENDBRANCH   5   4
ENDBRANCH   6   5
TORSDOF 9
