
     RDKit          3D

 17 16  0  0  0  0  0  0  0  0999 V2000
    2.8654   -1.6274    0.5358 N   0  0  0  0  0  0  0  0  0  0  0  0
    1.9258   -0.4105    0.9686 C   0  0  1  0  0  0  0  0  0  0  0  0
    2.6653    0.7076   -0.0156 C   0  0  0  0  0  0  0  0  0  0  0  0
    4.0818    0.3793   -0.0953 C   0  0  0  0  0  0  0  0  0  0  0  0
    4.4519   -0.5267   -0.9103 O   0  0  0  0  0  0  0  0  0  0  0  0
    4.8590    1.5319   -0.3173 O   0  0  0  0  0  0  0  0  0  0  0  0
    0.8251   -0.7850   -0.1815 C   0  0  0  0  0  0  0  0  0  0  0  0
    1.2692   -0.9435   -1.3277 O   0  0  0  0  0  0  0  0  0  0  0  0
   -0.2832    0.0474    0.0494 N   0  0  0  0  0  0  0  0  0  0  0  0
   -1.4491   -0.2240   -1.0051 C   0  0  2  0  0  0  0  0  0  0  0  0
   -1.9694    1.3472   -0.8388 C   0  0  0  0  0  0  0  0  0  0  0  0
   -3.3653    1.3204   -0.4629 C   0  0  0  0  0  0  0  0  0  0  0  0
   -4.2856    1.5927   -1.2854 O   0  0  0  0  0  0  0  0  0  0  0  0
   -3.5872    1.4346    0.9158 O   0  0  0  0  0  0  0  0  0  0  0  0
   -2.4401   -0.8356    0.1482 C   0  0  0  0  0  0  0  0  0  0  0  0
   -1.9023   -1.8346    0.7259 O   0  0  0  0  0  0  0  0  0  0  0  0
   -3.6612   -1.1739   -0.4548 O   0  0  0  0  0  0  0  0  0  0  0  0
  2  1  1  6
  2  3  1  0
  3  4  1  0
  4  5  2  0
  4  6  1  0
  2  7  1  0
  7  8  2  0
  7  9  1  0
 10  9  1  1
 10 11  1  0
 11 12  1  0
 12 13  2  0
 12 14  1  0
 10 15  1  0
 15 16  2  0
 15 17  1  0
M  END
>  <zinc_id>  (1) 
ZINC000001575290

>  <smiles>  (1) 
N[C@@H](CC(=O)O)C(=O)N[C@H](CC(=O)O)C(=O)O

$$$$
