REMARK  Name = 
REMARK  6 active torsions:
REMARK  status: ('A' for Active; 'I' for Inactive)
REMARK    1  A    between atoms: CA_2  and  CB_3
REMARK    2  A    between atoms: CA_2  and  C_7
REMARK    3  A    between atoms: CB_3  and  CG_4
REMARK    4  A    between atoms: N_9  and  CA_10
REMARK    5  A    between atoms: CA_10  and  CB_11
REMARK    6  A    between atoms: CA_10  and  C_13
REMARK                            x       y       z     vdW  Elec       q    Type
REMARK                         _______ _______ _______ _____ _____    ______ ____
ROOT
ATOM      7  C   ASP A   1       0.195  -0.540   0.008  0.00  0.00    +0.000 C 
ATOM      8  O   ASP A   1       0.522   0.588  -0.349  0.00  0.00    +0.000 OA
ATOM      9  N   SER A   2      -1.124  -0.895  -0.255  0.00  0.00    +0.000 NA
ENDROOT
BRANCH   7   2
ATOM      1  N   ASP A   1       1.923  -1.320  -1.316  0.00  0.00    +0.000 NA
ATOM      2  CA  ASP A   1       1.305  -1.696   0.090  0.00  0.00    +0.000 C 
BRANCH   2   3
ATOM      3  CB  ASP A   1       2.313  -0.751   0.979  0.00  0.00    +0.000 C 
BRANCH   3   4
ATOM      4  CG  ASP A   1       3.325  -0.138   0.169  0.00  0.00    +0.000 C 
ATOM      5  OD1 ASP A   1       4.511  -0.572   0.298  0.00  0.00    +0.000 OA
ATOM      6  OD2 ASP A   1       3.275   1.226  -0.146  0.00  0.00    +0.000 OA
ENDBRANCH   3   4
ENDBRANCH   2   3
ENDBRANCH   7   2
BRANCH   9  10
ATOM     10  CA  SER A   2      -2.202   0.084   0.351  0.00  0.00    +0.000 C 
BRANCH  10  13
ATOM     13  C   SER A   2      -3.076   0.013  -1.001  0.00  0.00    +0.000 C 
ATOM     14  O   SER A   2      -3.696  -1.069  -1.058  0.00  0.00    +0.000 OA
ATOM     15  OXT SER A   2      -3.548   1.160  -1.545  0.00  0.00    +0.000 OA
ENDBRANCH  10  13
BRANCH  10  11
ATOM     11  CB  SER A   2      -1.410   1.452  -0.114  0.00  0.00    +0.000 C 
ATOM     12  OG  SER A   2      -2.312   2.458   0.268  0.00  0.00    +0.000 OA
ENDBRANCH  10  11
ENDBRANCH   9  10
TORSDOF 6
