
     RDKit          3D

 17 16  0  0  0  0  0  0  0  0999 V2000
    4.1587   -1.9432   -0.8239 C   0  0  0  0  0  0  0  0  0  0  0  0
    3.2074   -1.2206   -0.0090 C   0  0  0  0  0  0  0  0  0  0  0  0
    2.4311   -2.1992    0.8696 C   0  0  0  0  0  0  0  0  0  0  0  0
    2.2444   -0.3234   -0.7791 C   0  0  0  0  0  0  0  0  0  0  0  0
    1.3028    0.1617    0.5184 C   0  0  2  0  0  0  0  0  0  0  0  0
    0.4672    1.1763   -0.4024 N   0  0  0  0  0  0  0  0  0  0  0  0
   -0.6093    0.5196   -1.0099 C   0  0  0  0  0  0  0  0  0  0  0  0
   -0.4759   -0.5198   -1.6112 O   0  0  0  0  0  0  0  0  0  0  0  0
   -2.1003    0.9554   -0.4860 C   0  0  1  0  0  0  0  0  0  0  0  0
   -2.6170    1.1758   -1.9905 N   0  0  0  0  0  0  0  0  0  0  0  0
   -2.6838   -0.6175   -0.4613 C   0  0  0  0  0  0  0  0  0  0  0  0
   -3.9225   -0.5220    0.3730 C   0  0  0  0  0  0  0  0  0  0  0  0
   -4.8496   -1.3441    0.1533 O   0  0  0  0  0  0  0  0  0  0  0  0
   -3.9450    0.1849    1.5553 O   0  0  0  0  0  0  0  0  0  0  0  0
    2.3876    1.3298    0.9235 C   0  0  0  0  0  0  0  0  0  0  0  0
    3.2156    0.7420    1.6865 O   0  0  0  0  0  0  0  0  0  0  0  0
    1.7886    2.4443    1.4937 O   0  0  0  0  0  0  0  0  0  0  0  0
  1  2  1  0
  2  3  1  0
  2  4  1  0
  5  4  1  6
  5  6  1  0
  6  7  1  0
  7  8  2  0
  9  7  1  6
  9 10  1  0
  9 11  1  0
 11 12  1  0
 12 13  2  0
 12 14  1  0
  5 15  1  0
 15 16  2  0
 15 17  1  0
M  END
>  <zinc_id>  (1) 
ZINC000001575282

>  <smiles>  (1) 
CC(C)C[C@H](NC(=O)[C@@H](N)CC(=O)O)C(=O)O

$$$$
