REMARK  Name = 
REMARK  7 active torsions:
REMARK  status: ('A' for Active; 'I' for Inactive)
REMARK    1  A    between atoms: CA_2  and  CB_3
REMARK    2  A    between atoms: CA_2  and  C_7
REMARK    3  A    between atoms: CB_3  and  CG_4
REMARK    4  A    between atoms: N_9  and  CA_10
REMARK    5  A    between atoms: CA_10  and  CB_11
REMARK    6  A    between atoms: CA_10  and  C_18
REMARK    7  A    between atoms: CB_11  and  CG_12
REMARK                            x       y       z     vdW  Elec       q    Type
REMARK                         _______ _______ _______ _____ _____    ______ ____
ROOT
ATOM     10  CA  PHE A   2      -0.842   0.987   0.575  0.00  0.00    +0.000 C 
ENDROOT
BRANCH  10   9
ATOM      7  C   ASP A   1       1.486   0.725  -0.499  0.00  0.00    +0.000 C 
ATOM      8  O   ASP A   1       1.459   1.873  -0.915  0.00  0.00    +0.000 OA
ATOM      9  N   PHE A   2       0.241   0.175  -0.269  0.00  0.00    +0.000 NA
BRANCH   7   2
ATOM      1  N   ASP A   1       3.773   1.267  -0.242  0.00  0.00    +0.000 NA
ATOM      2  CA  ASP A   1       2.740   0.244   0.426  0.00  0.00    +0.000 C 
BRANCH   2   3
ATOM      3  CB  ASP A   1       3.167  -0.951  -0.653  0.00  0.00    +0.000 C 
BRANCH   3   4
ATOM      4  CG  ASP A   1       4.135  -1.740   0.133  0.00  0.00    +0.000 C 
ATOM      5  OD1 ASP A   1       4.924  -2.533  -0.461  0.00  0.00    +0.000 OA
ATOM      6  OD2 ASP A   1       4.144  -1.799   1.530  0.00  0.00    +0.000 OA
ENDBRANCH   3   4
ENDBRANCH   2   3
ENDBRANCH   7   2
ENDBRANCH  10   9
BRANCH  10  18
ATOM     18  C   PHE A   2      -0.340   2.490   0.143  0.00  0.00    +0.000 C 
ATOM     19  O   PHE A   2       0.134   2.937   1.247  0.00  0.00    +0.000 OA
ATOM     20  OXT PHE A   2      -1.398   3.350  -0.192  0.00  0.00    +0.000 OA
ENDBRANCH  10  18
BRANCH  10  11
ATOM     11  CB  PHE A   2      -1.952   0.879  -0.667  0.00  0.00    +0.000 C 
BRANCH  11  12
ATOM     12  CG  PHE A   2      -2.943  -0.087  -0.094  0.00  0.00    +0.000 A 
ATOM     13  CD1 PHE A   2      -4.097  -0.329  -0.796  0.00  0.00    +0.000 A 
ATOM     14  CE1 PHE A   2      -4.664  -1.595  -0.901  0.00  0.00    +0.000 A 
ATOM     15  CZ  PHE A   2      -4.144  -2.596  -0.090  0.00  0.00    +0.000 A 
ATOM     16  CE2 PHE A   2      -3.267  -2.230   0.925  0.00  0.00    +0.000 A 
ATOM     17  CD2 PHE A   2      -2.558  -1.068   0.799  0.00  0.00    +0.000 A 
ENDBRANCH  11  12
ENDBRANCH  10  11
TORSDOF 7
