
     RDKit          3D

 13 12  0  0  0  0  0  0  0  0999 V2000
   -1.6295    0.4103    1.3188 N   0  0  0  0  0  0  0  0  0  0  0  0
   -0.8794   -0.8446    0.7295 C   0  0  1  0  0  0  0  0  0  0  0  0
   -1.9300   -1.0926   -0.5042 C   0  0  0  0  0  0  0  0  0  0  0  0
   -3.0928   -0.2559   -0.3836 C   0  0  0  0  0  0  0  0  0  0  0  0
   -2.9906    0.9357   -0.8125 O   0  0  0  0  0  0  0  0  0  0  0  0
   -4.1529   -0.4361    0.5116 O   0  0  0  0  0  0  0  0  0  0  0  0
    0.0869    0.0585   -0.1999 C   0  0  0  0  0  0  0  0  0  0  0  0
    0.6667    1.0066    0.4115 O   0  0  0  0  0  0  0  0  0  0  0  0
    1.0179   -0.8250   -0.8418 N   0  0  0  0  0  0  0  0  0  0  0  0
    2.3302   -0.4511   -1.2654 C   0  0  0  0  0  0  0  0  0  0  0  0
    3.1080    0.3179   -0.2828 C   0  0  0  0  0  0  0  0  0  0  0  0
    3.4414    1.5027   -0.5924 O   0  0  0  0  0  0  0  0  0  0  0  0
    4.0241   -0.3265    0.5560 O   0  0  0  0  0  0  0  0  0  0  0  0
  2  1  1  1
  2  3  1  0
  3  4  1  0
  4  5  2  0
  4  6  1  0
  2  7  1  0
  7  8  2  0
  7  9  1  0
  9 10  1  0
 10 11  1  0
 11 12  2  0
 11 13  1  0
M  END
>  <zinc_id>  (1) 
ZINC000002384840

>  <smiles>  (1) 
N[C@@H](CC(=O)O)C(=O)NCC(=O)O

$$$$
