
     RDKit          3D

 19 19  0  0  0  0  0  0  0  0999 V2000
   -3.2098   -2.6242   -0.4142 N   0  0  0  0  0  0  0  0  0  0  0  0
   -2.9108   -1.1205   -0.7789 C   0  0  1  0  0  0  0  0  0  0  0  0
   -3.5627   -0.6004    0.6384 C   0  0  0  0  0  0  0  0  0  0  0  0
   -3.9865    0.7775    0.3459 C   0  0  0  0  0  0  0  0  0  0  0  0
   -3.7394    1.3910   -0.7192 O   0  0  0  0  0  0  0  0  0  0  0  0
   -4.9356    1.3739    1.1795 O   0  0  0  0  0  0  0  0  0  0  0  0
   -1.4205   -1.1376   -0.1609 C   0  0  0  0  0  0  0  0  0  0  0  0
   -0.7632   -2.1745   -0.2974 O   0  0  0  0  0  0  0  0  0  0  0  0
   -0.7350    0.0938   -0.1789 N   0  0  0  0  0  0  0  0  0  0  0  0
    0.5275    0.2020   -1.1158 C   0  0  1  0  0  0  0  0  0  0  0  0
    1.1561    1.4373   -0.2280 C   0  0  0  0  0  0  0  0  0  0  0  0
    2.6090    1.2233   -0.1804 C   0  0  0  0  0  0  0  0  0  0  0  0
    3.3730    1.6391    0.9051 C   0  0  0  0  0  0  0  0  0  0  0  0
    4.6559    1.3692    0.6560 N   0  0  0  0  0  0  0  0  0  0  0  0
    4.7405    0.9420   -0.6068 C   0  0  0  0  0  0  0  0  0  0  0  0
    3.4931    0.8682   -1.1164 N   0  0  0  0  0  0  0  0  0  0  0  0
    1.3301   -0.9387   -0.3121 C   0  0  0  0  0  0  0  0  0  0  0  0
    1.4743   -0.8353    0.8929 O   0  0  0  0  0  0  0  0  0  0  0  0
    1.9040   -1.8859   -1.1448 O   0  0  0  0  0  0  0  0  0  0  0  0
  2  1  1  1
  2  3  1  0
  3  4  1  0
  4  5  2  0
  4  6  1  0
  2  7  1  0
  7  8  2  0
  7  9  1  0
 10  9  1  1
 10 11  1  0
 11 12  1  0
 12 13  2  0
 13 14  1  0
 14 15  2  0
 15 16  1  0
 10 17  1  0
 17 18  2  0
 17 19  1  0
 16 12  1  0
M  END
>  <zinc_id>  (1) 
ZINC000013545026

>  <smiles>  (1) 
N[C@@H](CC(=O)O)C(=O)N[C@@H](Cc1cnc[nH]1)C(=O)O

$$$$
