
     RDKit          3D

 18 17  0  0  0  0  0  0  0  0999 V2000
    4.0901    0.0617   -0.2214 N   0  0  0  0  0  0  0  0  0  0  0  0
    3.8218    0.1755   -0.6651 C   0  0  0  0  0  0  0  0  0  0  0  0
    4.0911    1.3273   -1.1220 O   0  0  0  0  0  0  0  0  0  0  0  0
    2.7686   -0.6141   -1.3684 C   0  0  0  0  0  0  0  0  0  0  0  0
    1.4405   -0.6177   -0.7555 C   0  0  0  0  0  0  0  0  0  0  0  0
    1.4925    0.1862    0.6763 C   0  0  2  0  0  0  0  0  0  0  0  0
    0.1179   -0.3541    1.2107 N   0  0  0  0  0  0  0  0  0  0  0  0
   -0.9300   -0.6712    0.3422 C   0  0  0  0  0  0  0  0  0  0  0  0
   -0.5230   -1.3271   -0.6631 O   0  0  0  0  0  0  0  0  0  0  0  0
   -1.9943   -1.4443    1.2892 C   0  0  2  0  0  0  0  0  0  0  0  0
   -2.5619   -2.4022    0.1716 N   0  0  0  0  0  0  0  0  0  0  0  0
   -3.1876   -0.3440    1.0406 C   0  0  0  0  0  0  0  0  0  0  0  0
   -3.2530   -0.0864   -0.4156 C   0  0  0  0  0  0  0  0  0  0  0  0
   -4.0030   -0.8626   -1.0881 O   0  0  0  0  0  0  0  0  0  0  0  0
   -3.5493    1.2622   -0.6777 O   0  0  0  0  0  0  0  0  0  0  0  0
    0.8338    1.5384    0.0955 C   0  0  0  0  0  0  0  0  0  0  0  0
    0.0124    1.4801   -0.7942 O   0  0  0  0  0  0  0  0  0  0  0  0
    1.3336    2.6921    0.6658 O   0  0  0  0  0  0  0  0  0  0  0  0
  1  2  1  0
  2  3  2  0
  2  4  1  0
  4  5  1  0
  6  5  1  6
  6  7  1  0
  7  8  1  0
  8  9  2  0
 10  8  1  6
 10 11  1  0
 10 12  1  0
 12 13  1  0
 13 14  2  0
 13 15  1  0
  6 16  1  0
 16 17  2  0
 16 18  1  0
M  END
>  <zinc_id>  (1) 
ZINC000004533735

>  <smiles>  (1) 
NC(=O)CC[C@H](NC(=O)[C@H](N)CC(=O)O)C(=O)O

$$$$
