
     RDKit          3D

 18 17  0  0  0  0  0  0  0  0999 V2000
   -4.7334    0.6201    1.0805 N   0  0  0  0  0  0  0  0  0  0  0  0
   -4.5411    0.6930    0.6752 C   0  0  0  0  0  0  0  0  0  0  0  0
   -3.6127    1.0003   -0.4936 C   0  0  0  0  0  0  0  0  0  0  0  0
   -3.4997   -0.2788   -1.2994 C   0  0  0  0  0  0  0  0  0  0  0  0
   -2.3948   -1.1673   -0.7561 C   0  0  0  0  0  0  0  0  0  0  0  0
   -1.3466   -0.0641   -0.0525 C   0  0  2  0  0  0  0  0  0  0  0  0
   -0.0658   -0.9575   -0.4311 N   0  0  0  0  0  0  0  0  0  0  0  0
    1.0805   -0.4418    0.2501 C   0  0  0  0  0  0  0  0  0  0  0  0
    1.0590    0.5471    0.9980 O   0  0  0  0  0  0  0  0  0  0  0  0
    2.4782   -0.6506   -0.5869 C   0  0  1  0  0  0  0  0  0  0  0  0
    2.4982    0.8906   -1.0434 N   0  0  0  0  0  0  0  0  0  0  0  0
    3.4139   -0.3629    0.7737 C   0  0  0  0  0  0  0  0  0  0  0  0
    4.4676    0.5626    0.3343 C   0  0  0  0  0  0  0  0  0  0  0  0
    4.3736    1.7366    0.8049 O   0  0  0  0  0  0  0  0  0  0  0  0
    5.0738    0.4938   -0.9236 O   0  0  0  0  0  0  0  0  0  0  0  0
   -1.4944   -0.7615    1.4262 C   0  0  0  0  0  0  0  0  0  0  0  0
   -1.3739   -1.9829    1.4653 O   0  0  0  0  0  0  0  0  0  0  0  0
   -1.3822    0.1233    2.4737 O   0  0  0  0  0  0  0  0  0  0  0  0
  1  2  1  0
  2  3  1  0
  3  4  1  0
  4  5  1  0
  6  5  1  6
  6  7  1  0
  7  8  1  0
  8  9  2  0
 10  8  1  1
 10 11  1  0
 10 12  1  0
 12 13  1  0
 13 14  2  0
 13 15  1  0
  6 16  1  0
 16 17  2  0
 16 18  1  0
M  END
>  <zinc_id>  (1) 
ZINC000002390911

>  <smiles>  (1) 
NCCCC[C@H](NC(=O)[C@@H](N)CC(=O)O)C(=O)O

$$$$
