
     RDKit          3D

 17 16  0  0  0  0  0  0  0  0999 V2000
    2.4105   -1.7506   -0.4020 N   0  0  0  0  0  0  0  0  0  0  0  0
    2.0056   -0.6128    0.6128 C   0  0  1  0  0  0  0  0  0  0  0  0
    2.6231    0.5571   -0.3666 C   0  0  0  0  0  0  0  0  0  0  0  0
    4.0860    0.4578   -0.2328 C   0  0  0  0  0  0  0  0  0  0  0  0
    4.6284   -0.6269   -0.5819 O   0  0  0  0  0  0  0  0  0  0  0  0
    4.8232    1.6127   -0.5109 O   0  0  0  0  0  0  0  0  0  0  0  0
    0.5271   -0.4046    0.0265 C   0  0  0  0  0  0  0  0  0  0  0  0
    0.1577   -0.9336   -0.9900 O   0  0  0  0  0  0  0  0  0  0  0  0
   -0.3275    0.2749    0.8534 N   0  0  0  0  0  0  0  0  0  0  0  0
   -1.8826    0.1609    0.6703 C   0  0  1  0  0  0  0  0  0  0  0  0
   -1.8445    0.9017   -0.7987 C   0  0  0  0  0  0  0  0  0  0  0  0
   -3.1221    1.6829   -0.8203 C   0  0  0  0  0  0  0  0  0  0  0  0
   -4.1332    1.2658   -1.4638 O   0  0  0  0  0  0  0  0  0  0  0  0
   -3.4236    2.4182    0.3304 O   0  0  0  0  0  0  0  0  0  0  0  0
   -1.8443   -1.3130    0.0075 C   0  0  0  0  0  0  0  0  0  0  0  0
   -1.7645   -2.1387    0.9682 O   0  0  0  0  0  0  0  0  0  0  0  0
   -2.9192   -1.5520   -0.8531 O   0  0  0  0  0  0  0  0  0  0  0  0
  2  1  1  6
  2  3  1  0
  3  4  1  0
  4  5  2  0
  4  6  1  0
  2  7  1  0
  7  8  2  0
  7  9  1  0
 10  9  1  1
 10 11  1  0
 11 12  1  0
 12 13  2  0
 12 14  1  0
 10 15  1  0
 15 16  2  0
 15 17  1  0
M  END
>  <zinc_id>  (1) 
ZINC000001575288

>  <smiles>  (1) 
N[C@@H](CC(=O)O)C(=O)N[C@@H](CC(=O)O)C(=O)O

$$$$
