
     RDKit          3D

 18 17  0  0  0  0  0  0  0  0999 V2000
   -2.5494   -1.5554    0.5626 N   0  0  0  0  0  0  0  0  0  0  0  0
   -2.6208    0.0132    0.4503 C   0  0  2  0  0  0  0  0  0  0  0  0
   -3.2971   -0.0727   -1.0476 C   0  0  0  0  0  0  0  0  0  0  0  0
   -4.4947    0.7966   -0.8152 C   0  0  0  0  0  0  0  0  0  0  0  0
   -4.2353    1.9902   -0.4714 O   0  0  0  0  0  0  0  0  0  0  0  0
   -5.4984    0.1857   -0.0545 O   0  0  0  0  0  0  0  0  0  0  0  0
   -1.1394    0.1191   -0.1729 C   0  0  0  0  0  0  0  0  0  0  0  0
   -0.9697    1.3059   -0.5797 O   0  0  0  0  0  0  0  0  0  0  0  0
   -0.1151   -0.5567    0.5204 N   0  0  0  0  0  0  0  0  0  0  0  0
    1.2139   -0.2914   -0.2861 C   0  0  1  0  0  0  0  0  0  0  0  0
    1.7731    0.7360    0.8716 C   0  0  0  0  0  0  0  0  0  0  0  0
    3.2370    0.4711    1.0059 C   0  0  0  0  0  0  0  0  0  0  0  0
    4.0056    1.0405   -0.1439 C   0  0  0  0  0  0  0  0  0  0  0  0
    5.0090    1.7397    0.1930 O   0  0  0  0  0  0  0  0  0  0  0  0
    4.1770    0.1367   -1.1976 O   0  0  0  0  0  0  0  0  0  0  0  0
    1.9437   -1.5933    0.3227 C   0  0  0  0  0  0  0  0  0  0  0  0
    2.0183   -1.7020    1.5410 O   0  0  0  0  0  0  0  0  0  0  0  0
    1.5425   -2.7635   -0.3385 O   0  0  0  0  0  0  0  0  0  0  0  0
  2  1  1  1
  2  3  1  0
  3  4  1  0
  4  5  2  0
  4  6  1  0
  2  7  1  0
  7  8  2  0
  7  9  1  0
 10  9  1  1
 10 11  1  0
 11 12  1  0
 12 13  1  0
 13 14  2  0
 13 15  1  0
 10 16  1  0
 16 17  2  0
 16 18  1  0
M  END
>  <zinc_id>  (1) 
ZINC000004533738

>  <smiles>  (1) 
N[C@H](CC(=O)O)C(=O)N[C@@H](CCC(=O)O)C(=O)O

$$$$
