
     RDKit          3D

 18 17  0  0  0  0  0  0  0  0999 V2000
   -3.0922   -2.0633   -0.0443 N   0  0  0  0  0  0  0  0  0  0  0  0
   -2.1048   -1.2487   -0.9572 C   0  0  1  0  0  0  0  0  0  0  0  0
   -3.2568   -0.1251   -1.2967 C   0  0  0  0  0  0  0  0  0  0  0  0
   -3.8205    0.3448   -0.0326 C   0  0  0  0  0  0  0  0  0  0  0  0
   -4.7144   -0.3417    0.5522 O   0  0  0  0  0  0  0  0  0  0  0  0
   -4.0305    1.7292    0.0591 O   0  0  0  0  0  0  0  0  0  0  0  0
   -1.4866   -0.3860    0.2617 C   0  0  0  0  0  0  0  0  0  0  0  0
   -1.3660   -0.9777    1.3644 O   0  0  0  0  0  0  0  0  0  0  0  0
   -0.3243    0.3169   -0.1578 N   0  0  0  0  0  0  0  0  0  0  0  0
    0.9564    0.1362    0.7523 C   0  0  2  0  0  0  0  0  0  0  0  0
    1.6460    1.5074    0.1679 C   0  0  0  0  0  0  0  0  0  0  0  0
    2.8651    1.2802   -0.5090 C   0  0  0  0  0  0  0  0  0  0  0  0
    4.1471    1.1212    0.1364 C   0  0  0  0  0  0  0  0  0  0  0  0
    4.8141    0.1010   -0.2309 O   0  0  0  0  0  0  0  0  0  0  0  0
    4.9484    2.2582    0.3101 O   0  0  0  0  0  0  0  0  0  0  0  0
    1.6971   -0.8436   -0.2966 C   0  0  0  0  0  0  0  0  0  0  0  0
    1.5679   -0.6214   -1.4992 O   0  0  0  0  0  0  0  0  0  0  0  0
    1.5541   -2.1874    0.0743 O   0  0  0  0  0  0  0  0  0  0  0  0
  2  1  1  1
  2  3  1  0
  3  4  1  0
  4  5  2  0
  4  6  1  0
  2  7  1  0
  7  8  2  0
  7  9  1  0
 10  9  1  6
 10 11  1  0
 11 12  1  0
 12 13  1  0
 13 14  2  0
 13 15  1  0
 10 16  1  0
 16 17  2  0
 16 18  1  0
M  END
>  <zinc_id>  (1) 
ZINC000004533740

>  <smiles>  (1) 
N[C@@H](CC(=O)O)C(=O)N[C@H](CCC(=O)O)C(=O)O

$$$$
