
     RDKit          3D

 20 20  0  0  0  0  0  0  0  0999 V2000
   -3.6898   -1.2638   -1.2090 N   0  0  0  0  0  0  0  0  0  0  0  0
   -2.5058   -0.2644   -1.5273 C   0  0  1  0  0  0  0  0  0  0  0  0
   -3.3614    1.0246   -0.9944 C   0  0  0  0  0  0  0  0  0  0  0  0
   -3.7965    0.8087    0.3608 C   0  0  0  0  0  0  0  0  0  0  0  0
   -4.2331    1.8810    0.8877 O   0  0  0  0  0  0  0  0  0  0  0  0
   -4.1795   -0.3351    1.0080 O   0  0  0  0  0  0  0  0  0  0  0  0
   -1.7490   -0.5091   -0.1168 C   0  0  0  0  0  0  0  0  0  0  0  0
   -1.7688   -1.6968    0.2885 O   0  0  0  0  0  0  0  0  0  0  0  0
   -0.5259    0.1158    0.1203 N   0  0  0  0  0  0  0  0  0  0  0  0
    0.8146   -0.6086   -0.2852 C   0  0  1  0  0  0  0  0  0  0  0  0
    1.5914   -0.1133    1.0802 C   0  0  0  0  0  0  0  0  0  0  0  0
    2.7281    0.6441    0.4825 C   0  0  0  0  0  0  0  0  0  0  0  0
    3.6926    0.0050   -0.2850 C   0  0  0  0  0  0  0  0  0  0  0  0
    4.5650    0.7460   -1.0434 C   0  0  0  0  0  0  0  0  0  0  0  0
    4.5727    2.1099   -0.9190 C   0  0  0  0  0  0  0  0  0  0  0  0
    3.6357    2.7371   -0.1162 C   0  0  0  0  0  0  0  0  0  0  0  0
    2.6267    2.0259    0.5134 C   0  0  0  0  0  0  0  0  0  0  0  0
    0.3826   -2.0418    0.3087 C   0  0  0  0  0  0  0  0  0  0  0  0
    0.5908   -2.8666   -0.6400 O   0  0  0  0  0  0  0  0  0  0  0  0
    0.6097   -2.3986    1.5771 O   0  0  0  0  0  0  0  0  0  0  0  0
  2  1  1  1
  2  3  1  0
  3  4  1  0
  4  5  2  0
  4  6  1  0
  2  7  1  0
  7  8  2  0
  7  9  1  0
 10  9  1  1
 10 11  1  0
 11 12  1  0
 12 13  2  0
 13 14  1  0
 14 15  2  0
 15 16  1  0
 16 17  2  0
 10 18  1  0
 18 19  2  0
 18 20  1  0
 17 12  1  0
M  END
>  <zinc_id>  (1) 
ZINC000003645672

>  <smiles>  (1) 
N[C@@H](CC(=O)O)C(=O)N[C@@H](Cc1ccccc1)C(=O)O

$$$$
