
     RDKit          3D

 14 13  0  0  0  0  0  0  0  0999 V2000
    2.3041    2.2762   -0.6078 C   0  0  0  0  0  0  0  0  0  0  0  0
    1.7436    0.8320   -1.1698 C   0  0  2  0  0  0  0  0  0  0  0  0
    0.5788    0.8583   -0.1113 N   0  0  0  0  0  0  0  0  0  0  0  0
    0.1350   -0.3755    0.3252 C   0  0  0  0  0  0  0  0  0  0  0  0
    0.9278   -1.0369    0.9108 O   0  0  0  0  0  0  0  0  0  0  0  0
   -1.2891   -0.9195   -0.1725 C   0  0  1  0  0  0  0  0  0  0  0  0
   -1.2099   -2.2736    0.6340 N   0  0  0  0  0  0  0  0  0  0  0  0
   -2.0653   -0.1608    1.0661 C   0  0  0  0  0  0  0  0  0  0  0  0
   -3.2496    0.3550    0.3175 C   0  0  0  0  0  0  0  0  0  0  0  0
   -4.1586   -0.5030    0.1101 O   0  0  0  0  0  0  0  0  0  0  0  0
   -3.4649    1.6902    0.0673 O   0  0  0  0  0  0  0  0  0  0  0  0
    2.7647   -0.0535   -0.2844 C   0  0  0  0  0  0  0  0  0  0  0  0
    2.9136   -1.1564   -0.9197 O   0  0  0  0  0  0  0  0  0  0  0  0
    4.0699    0.4674   -0.1954 O   0  0  0  0  0  0  0  0  0  0  0  0
  2  1  1  1
  2  3  1  0
  3  4  1  0
  4  5  2  0
  6  4  1  1
  6  7  1  0
  6  8  1  0
  8  9  1  0
  9 10  2  0
  9 11  1  0
  2 12  1  0
 12 13  2  0
 12 14  1  0
M  END
>  <zinc_id>  (1) 
ZINC000002123927

>  <smiles>  (1) 
C[C@H](NC(=O)[C@@H](N)CC(=O)O)C(=O)O

$$$$
