REMARK  Name = 
REMARK  4 active torsions:
REMARK  status: ('A' for Active; 'I' for Inactive)
REMARK    1  A    between atoms: CA_2  and  CB_3
REMARK    2  A    between atoms: CA_2  and  C_7
REMARK    3  A    between atoms: CB_3  and  CG_4
REMARK    4  A    between atoms: CA_13  and  C_14
REMARK                            x       y       z     vdW  Elec       q    Type
REMARK                         _______ _______ _______ _____ _____    ______ ____
ROOT
ATOM      7  C   ASP A   1       0.344   0.006  -1.107  0.00  0.00    +0.000 C 
ATOM      8  O   ASP A   1       0.370  -0.901  -1.981  0.00  0.00    +0.000 OA
ATOM      9  N   PRO A   2      -0.688   0.177  -0.181  0.00  0.00    +0.000 N 
ATOM     10  CD  PRO A   2      -0.686   0.622   1.121  0.00  0.00    +0.000 C 
ATOM     11  CG  PRO A   2      -1.956   1.246   1.473  0.00  0.00    +0.000 C 
ATOM     12  CB  PRO A   2      -2.667   1.451   0.249  0.00  0.00    +0.000 C 
ATOM     13  CA  PRO A   2      -2.091   0.389  -0.853  0.00  0.00    +0.000 C 
ENDROOT
BRANCH  13  14
ATOM     14  C   PRO A   2      -2.760  -0.888  -0.133  0.00  0.00    +0.000 C 
ATOM     15  O   PRO A   2      -3.128  -1.730  -1.007  0.00  0.00    +0.000 OA
ATOM     16  OXT PRO A   2      -2.496  -1.171   1.152  0.00  0.00    +0.000 OA
ENDBRANCH  13  14
BRANCH   7   2
ATOM      1  N   ASP A   1       1.079   2.074  -0.346  0.00  0.00    +0.000 NA
ATOM      2  CA  ASP A   1       1.751   0.751  -0.877  0.00  0.00    +0.000 C 
BRANCH   2   3
ATOM      3  CB  ASP A   1       1.916   0.140   0.640  0.00  0.00    +0.000 C 
BRANCH   3   4
ATOM      4  CG  ASP A   1       3.273  -0.467   0.581  0.00  0.00    +0.000 C 
ATOM      5  OD1 ASP A   1       3.662  -1.083  -0.448  0.00  0.00    +0.000 OA
ATOM      6  OD2 ASP A   1       4.078  -0.616   1.715  0.00  0.00    +0.000 OA
ENDBRANCH   3   4
ENDBRANCH   2   3
ENDBRANCH   7   2
TORSDOF 4
