
     RDKit          3D

 17 16  0  0  0  0  0  0  0  0999 V2000
   -2.1835    2.2809    1.2304 C   0  0  0  0  0  0  0  0  0  0  0  0
   -3.0993    1.6803    0.2470 C   0  0  0  0  0  0  0  0  0  0  0  0
   -3.2674    2.5293   -0.9747 C   0  0  0  0  0  0  0  0  0  0  0  0
   -2.7495    0.2668   -0.1190 C   0  0  0  0  0  0  0  0  0  0  0  0
   -1.4516   -0.1116    0.8723 C   0  0  2  0  0  0  0  0  0  0  0  0
   -0.4975   -0.3793   -0.3924 N   0  0  0  0  0  0  0  0  0  0  0  0
    0.6684   -0.9839    0.2036 C   0  0  0  0  0  0  0  0  0  0  0  0
    0.5094   -2.1544    0.5001 O   0  0  0  0  0  0  0  0  0  0  0  0
    1.9807   -0.5746   -0.6916 C   0  0  2  0  0  0  0  0  0  0  0  0
    2.7847   -1.9334   -0.3832 N   0  0  0  0  0  0  0  0  0  0  0  0
    2.6911    0.1774    0.6266 C   0  0  0  0  0  0  0  0  0  0  0  0
    3.2226    1.4542    0.0521 C   0  0  0  0  0  0  0  0  0  0  0  0
    4.0356    1.4018   -0.9193 O   0  0  0  0  0  0  0  0  0  0  0  0
    3.4726    2.4502    0.9993 O   0  0  0  0  0  0  0  0  0  0  0  0
   -1.8816   -1.6922    0.9624 C   0  0  0  0  0  0  0  0  0  0  0  0
   -1.9626   -2.1193    2.1281 O   0  0  0  0  0  0  0  0  0  0  0  0
   -2.2721   -2.2921   -0.1820 O   0  0  0  0  0  0  0  0  0  0  0  0
  1  2  1  0
  2  3  1  0
  2  4  1  0
  5  4  1  6
  5  6  1  0
  6  7  1  0
  7  8  2  0
  9  7  1  1
  9 10  1  0
  9 11  1  0
 11 12  1  0
 12 13  2  0
 12 14  1  0
  5 15  1  0
 15 16  2  0
 15 17  1  0
M  END
>  <zinc_id>  (1) 
ZINC000001575280

>  <smiles>  (1) 
CC(C)C[C@H](NC(=O)[C@H](N)CC(=O)O)C(=O)O

$$$$
