
     RDKit          3D

 15 14  0  0  0  0  0  0  0  0999 V2000
    1.9230   -1.3201   -1.3156 N   0  0  0  0  0  0  0  0  0  0  0  0
    1.3054   -1.6960    0.0898 C   0  0  1  0  0  0  0  0  0  0  0  0
    2.3129   -0.7507    0.9790 C   0  0  0  0  0  0  0  0  0  0  0  0
    3.3245   -0.1381    0.1688 C   0  0  0  0  0  0  0  0  0  0  0  0
    4.5115   -0.5722    0.2977 O   0  0  0  0  0  0  0  0  0  0  0  0
    3.2748    1.2262   -0.1464 O   0  0  0  0  0  0  0  0  0  0  0  0
    0.1945   -0.5396    0.0084 C   0  0  0  0  0  0  0  0  0  0  0  0
    0.5225    0.5879   -0.3494 O   0  0  0  0  0  0  0  0  0  0  0  0
   -1.1239   -0.8954   -0.2548 N   0  0  0  0  0  0  0  0  0  0  0  0
   -2.2018    0.0835    0.3514 C   0  0  1  0  0  0  0  0  0  0  0  0
   -1.4104    1.4518   -0.1135 C   0  0  0  0  0  0  0  0  0  0  0  0
   -2.3124    2.4585    0.2680 O   0  0  0  0  0  0  0  0  0  0  0  0
   -3.0764    0.0129   -1.0013 C   0  0  0  0  0  0  0  0  0  0  0  0
   -3.6959   -1.0688   -1.0575 O   0  0  0  0  0  0  0  0  0  0  0  0
   -3.5483    1.1601   -1.5446 O   0  0  0  0  0  0  0  0  0  0  0  0
  2  1  1  6
  2  3  1  0
  3  4  1  0
  4  5  2  0
  4  6  1  0
  2  7  1  0
  7  8  2  0
  7  9  1  0
 10  9  1  6
 10 11  1  0
 11 12  1  0
 10 13  1  0
 13 14  2  0
 13 15  1  0
M  END
>  <zinc_id>  (1) 
ZINC000002384811

>  <smiles>  (1) 
N[C@@H](CC(=O)O)C(=O)N[C@@H](CO)C(=O)O

$$$$
