REMARK  Name = 
REMARK  8 active torsions:
REMARK  status: ('A' for Active; 'I' for Inactive)
REMARK    1  A    between atoms: CA_2  and  CB_3
REMARK    2  A    between atoms: CA_2  and  C_7
REMARK    3  A    between atoms: CB_3  and  CG_4
REMARK    4  A    between atoms: N_9  and  CA_10
REMARK    5  A    between atoms: CA_10  and  CB_11
REMARK    6  A    between atoms: CA_10  and  C_16
REMARK    7  A    between atoms: CB_11  and  CG_12
REMARK    8  A    between atoms: CG_12  and  CD_13
REMARK                            x       y       z     vdW  Elec       q    Type
REMARK                         _______ _______ _______ _____ _____    ______ ____
ROOT
ATOM      7  C   ASP A   1      -1.487  -0.386   0.262  0.00  0.00    +0.000 C 
ATOM      8  O   ASP A   1      -1.366  -0.978   1.364  0.00  0.00    +0.000 OA
ATOM      9  N   GLU A   2      -0.324   0.317  -0.158  0.00  0.00    +0.000 NA
ENDROOT
BRANCH   7   2
ATOM      1  N   ASP A   1      -3.092  -2.063  -0.044  0.00  0.00    +0.000 NA
ATOM      2  CA  ASP A   1      -2.105  -1.249  -0.957  0.00  0.00    +0.000 C 
BRANCH   2   3
ATOM      3  CB  ASP A   1      -3.257  -0.125  -1.297  0.00  0.00    +0.000 C 
BRANCH   3   4
ATOM      4  CG  ASP A   1      -3.821   0.345  -0.033  0.00  0.00    +0.000 C 
ATOM      5  OD1 ASP A   1      -4.714  -0.342   0.552  0.00  0.00    +0.000 OA
ATOM      6  OD2 ASP A   1      -4.030   1.729   0.059  0.00  0.00    +0.000 OA
ENDBRANCH   3   4
ENDBRANCH   2   3
ENDBRANCH   7   2
BRANCH   9  10
ATOM     10  CA  GLU A   2       0.956   0.136   0.752  0.00  0.00    +0.000 C 
BRANCH  10  16
ATOM     16  C   GLU A   2       1.697  -0.844  -0.297  0.00  0.00    +0.000 C 
ATOM     17  O   GLU A   2       1.568  -0.621  -1.499  0.00  0.00    +0.000 OA
ATOM     18  OXT GLU A   2       1.554  -2.187   0.074  0.00  0.00    +0.000 OA
ENDBRANCH  10  16
BRANCH  10  11
ATOM     11  CB  GLU A   2       1.646   1.507   0.168  0.00  0.00    +0.000 C 
BRANCH  11  12
ATOM     12  CG  GLU A   2       2.865   1.280  -0.509  0.00  0.00    +0.000 C 
BRANCH  12  13
ATOM     13  CD  GLU A   2       4.147   1.121   0.136  0.00  0.00    +0.000 C 
ATOM     14  OE1 GLU A   2       4.814   0.101  -0.231  0.00  0.00    +0.000 OA
ATOM     15  OE2 GLU A   2       4.948   2.258   0.310  0.00  0.00    +0.000 OA
ENDBRANCH  12  13
ENDBRANCH  11  12
ENDBRANCH  10  11
ENDBRANCH   9  10
TORSDOF 8
