MODEL 1
REMARK VINA RESULT:      -8.8      0.000      0.000
REMARK  Name = 
REMARK  5 active torsions:
REMARK  status: ('A' for Active; 'I' for Inactive)
REMARK    1  A    between atoms: C_2  and  C_3
REMARK    2  A    between atoms: C_5  and  O_6
REMARK    3  A    between atoms: O_6  and  C_7
REMARK    4  A    between atoms: C_12  and  C_13
REMARK    5  A    between atoms: C_14  and  C_15
REMARK                            x       y       z     vdW  Elec       q    Type
REMARK                         _______ _______ _______ _____ _____    ______ ____
ROOT
ATOM      1  C   UNL     1     -18.518  -5.957   7.252  0.00  0.00    +0.000 A 
ATOM      2  C   UNL     1     -19.282  -6.261   8.383  0.00  0.00    +0.000 A 
ATOM      3  C   UNL     1     -19.788  -5.284   9.218  0.00  0.00    +0.000 A 
ATOM      4  O   UNL     1     -20.949  -5.417   9.954  0.00  0.00    +0.000 OA
ATOM      5  C   UNL     1     -18.950  -4.177   9.274  0.00  0.00    +0.000 A 
ATOM      6  C   UNL     1     -18.427  -3.706   8.069  0.00  0.00    +0.000 A 
ATOM      7  C   UNL     1     -18.123  -4.662   7.101  0.00  0.00    +0.000 A 
ENDROOT
BRANCH   6   8
ATOM      8  C   UNL     1     -18.441  -2.267   7.741  0.00  0.00    +0.000 C 
ATOM      9  C   UNL     1     -17.967  -1.890   6.591  0.00  0.00    +0.000 C 
BRANCH   9  10
ATOM     10  C   UNL     1     -16.992  -0.863   6.311  0.00  0.00    +0.000 A 
ATOM     11  C   UNL     1     -15.691  -1.113   5.884  0.00  0.00    +0.000 A 
ATOM     12  C   UNL     1     -14.736  -0.131   6.125  0.00  0.00    +0.000 A 
ATOM     13  C   UNL     1     -15.133   1.076   6.667  0.00  0.00    +0.000 A 
ATOM     14  O   UNL     1     -14.399   1.746   7.652  0.00  0.00    +0.000 OA
ATOM     15  C   UNL     1     -16.454   1.418   6.395  0.00  0.00    +0.000 A 
ATOM     16  C   UNL     1     -17.416   0.449   6.148  0.00  0.00    +0.000 A 
ATOM     17  O   UNL     1     -18.716   0.735   5.795  0.00  0.00    +0.000 OA
ENDBRANCH   9  10
ENDBRANCH   6   8
BRANCH   1  18
ATOM     18  O   UNL     1     -18.119  -7.090   6.684  0.00  0.00    +0.000 OA
BRANCH  18  21
ATOM     19  C   UNL     1     -19.250  -8.654   4.060  0.00  0.00    +0.000 C 
ATOM     20  O   UNL     1     -19.146  -8.847   5.587  0.00  0.00    +0.000 OA
ATOM     21  C   UNL     1     -18.585  -7.456   5.219  0.00  0.00    +0.000 C 
ATOM     22  C   UNL     1     -16.952  -7.966   4.811  0.00  0.00    +0.000 C 
ATOM     23  O   UNL     1     -17.145  -7.796   3.302  0.00  0.00    +0.000 OA
ATOM     24  C   UNL     1     -16.965  -9.695   4.795  0.00  0.00    +0.000 C 
ATOM     25  O   UNL     1     -17.572  -9.880   6.191  0.00  0.00    +0.000 OA
ATOM     26  C   UNL     1     -18.389 -10.135   3.906  0.00  0.00    +0.000 C 
ATOM     27  O   UNL     1     -17.762  -9.788   2.562  0.00  0.00    +0.000 OA
BRANCH  19  29
ATOM     28  O   UNL     1     -20.972  -9.442   4.037  0.00  0.00    +0.000 OA
ATOM     29  C   UNL     1     -20.715  -9.455   4.024  0.00  0.00    +0.000 C 
ENDBRANCH  19  29
ENDBRANCH  18  21
ENDBRANCH   1  18
TORSDOF 5
ENDMDL
MODEL 2
REMARK VINA RESULT:      -8.6      5.281      7.477
REMARK  Name = 
REMARK  5 active torsions:
REMARK  status: ('A' for Active; 'I' for Inactive)
REMARK    1  A    between atoms: C_2  and  C_3
REMARK    2  A    between atoms: C_5  and  O_6
REMARK    3  A    between atoms: O_6  and  C_7
REMARK    4  A    between atoms: C_12  and  C_13
REMARK    5  A    between atoms: C_14  and  C_15
REMARK                            x       y       z     vdW  Elec       q    Type
REMARK                         _______ _______ _______ _____ _____    ______ ____
ROOT
ATOM      1  C   UNL     1     -22.372  -1.775   7.101  0.00  0.00    +0.000 A 
ATOM      2  C   UNL     1     -22.064  -2.693   8.110  0.00  0.00    +0.000 A 
ATOM      3  C   UNL     1     -20.894  -2.625   8.840  0.00  0.00    +0.000 A 
ATOM      4  O   UNL     1     -20.763  -3.068  10.142  0.00  0.00    +0.000 OA
ATOM      5  C   UNL     1     -19.849  -2.114   8.081  0.00  0.00    +0.000 A 
ATOM      6  C   UNL     1     -20.114  -0.994   7.293  0.00  0.00    +0.000 A 
ATOM      7  C   UNL     1     -21.385  -0.914   6.726  0.00  0.00    +0.000 A 
ENDROOT
BRANCH   6   8
ATOM      8  C   UNL     1     -19.198   0.163   7.275  0.00  0.00    +0.000 C 
ATOM      9  C   UNL     1     -18.356   0.271   6.291  0.00  0.00    +0.000 C 
BRANCH   9  10
ATOM     10  C   UNL     1     -16.931   0.488   6.345  0.00  0.00    +0.000 A 
ATOM     11  C   UNL     1     -16.327   1.571   6.978  0.00  0.00    +0.000 A 
ATOM     12  C   UNL     1     -15.053   1.935   6.555  0.00  0.00    +0.000 A 
ATOM     13  C   UNL     1     -14.407   1.154   5.617  0.00  0.00    +0.000 A 
ATOM     14  O   UNL     1     -13.658   1.691   4.564  0.00  0.00    +0.000 OA
ATOM     15  C   UNL     1     -14.806  -0.179   5.610  0.00  0.00    +0.000 A 
ATOM     16  C   UNL     1     -16.072  -0.557   6.035  0.00  0.00    +0.000 A 
ATOM     17  O   UNL     1     -16.489  -1.867   6.125  0.00  0.00    +0.000 OA
ENDBRANCH   9  10
ENDBRANCH   6   8
BRANCH   1  18
ATOM     18  O   UNL     1     -23.522  -2.126   6.535  0.00  0.00    +0.000 OA
BRANCH  18  21
ATOM     19  C   UNL     1     -26.496  -1.170   7.458  0.00  0.00    +0.000 C 
ATOM     20  O   UNL     1     -25.528  -2.355   7.660  0.00  0.00    +0.000 OA
ATOM     21  C   UNL     1     -24.830  -1.280   6.796  0.00  0.00    +0.000 C 
ATOM     22  C   UNL     1     -25.481  -1.777   5.239  0.00  0.00    +0.000 C 
ATOM     23  O   UNL     1     -26.451  -0.598   5.131  0.00  0.00    +0.000 OA
ATOM     24  C   UNL     1     -26.690  -2.968   5.568  0.00  0.00    +0.000 C 
ATOM     25  O   UNL     1     -25.811  -3.879   6.433  0.00  0.00    +0.000 OA
ATOM     26  C   UNL     1     -27.634  -2.317   6.871  0.00  0.00    +0.000 C 
ATOM     27  O   UNL     1     -28.363  -1.333   5.966  0.00  0.00    +0.000 OA
BRANCH  19  29
ATOM     28  O   UNL     1     -27.166  -1.218   9.228  0.00  0.00    +0.000 OA
ATOM     29  C   UNL     1     -27.074  -1.332   9.016  0.00  0.00    +0.000 C 
ENDBRANCH  19  29
ENDBRANCH  18  21
ENDBRANCH   1  18
TORSDOF 5
ENDMDL
MODEL 3
REMARK VINA RESULT:      -8.2     16.279     22.867
REMARK  Name = 
REMARK  5 active torsions:
REMARK  status: ('A' for Active; 'I' for Inactive)
REMARK    1  A    between atoms: C_2  and  C_3
REMARK    2  A    between atoms: C_5  and  O_6
REMARK    3  A    between atoms: O_6  and  C_7
REMARK    4  A    between atoms: C_12  and  C_13
REMARK    5  A    between atoms: C_14  and  C_15
REMARK                            x       y       z     vdW  Elec       q    Type
REMARK                         _______ _______ _______ _____ _____    ______ ____
ROOT
ATOM      1  C   UNL     1     -14.804  16.631  -0.507  0.00  0.00    +0.000 A 
ATOM      2  C   UNL     1     -13.600  16.870   0.163  0.00  0.00    +0.000 A 
ATOM      3  C   UNL     1     -13.162  16.075   1.203  0.00  0.00    +0.000 A 
ATOM      4  O   UNL     1     -11.833  15.868   1.516  0.00  0.00    +0.000 OA
ATOM      5  C   UNL     1     -14.225  15.561   1.935  0.00  0.00    +0.000 A 
ATOM      6  C   UNL     1     -15.308  15.048   1.221  0.00  0.00    +0.000 A 
ATOM      7  C   UNL     1     -15.634  15.692   0.028  0.00  0.00    +0.000 A 
ENDROOT
BRANCH   6   8
ATOM      8  C   UNL     1     -15.907  13.745   1.571  0.00  0.00    +0.000 C 
ATOM      9  C   UNL     1     -15.408  13.083   2.572  0.00  0.00    +0.000 C 
BRANCH   9  10
ATOM     10  C   UNL     1     -14.983  11.705   2.617  0.00  0.00    +0.000 A 
ATOM     11  C   UNL     1     -15.757  10.632   2.186  0.00  0.00    +0.000 A 
ATOM     12  C   UNL     1     -15.473   9.379   2.719  0.00  0.00    +0.000 A 
ATOM     13  C   UNL     1     -14.382   9.234   3.554  0.00  0.00    +0.000 A 
ATOM     14  O   UNL     1     -14.407   8.447   4.710  0.00  0.00    +0.000 OA
ATOM     15  C   UNL     1     -13.370  10.163   3.338  0.00  0.00    +0.000 A 
ATOM     16  C   UNL     1     -13.638  11.415   2.802  0.00  0.00    +0.000 A 
ATOM     17  O   UNL     1     -12.665  12.340   2.492  0.00  0.00    +0.000 OA
ENDBRANCH   9  10
ENDBRANCH   6   8
BRANCH   1  18
ATOM     18  O   UNL     1     -14.993  17.587  -1.410  0.00  0.00    +0.000 OA
BRANCH  18  21
ATOM     19  C   UNL     1     -15.216  17.422  -4.655  0.00  0.00    +0.000 C 
ATOM     20  O   UNL     1     -14.282  17.998  -3.571  0.00  0.00    +0.000 OA
ATOM     21  C   UNL     1     -15.426  17.219  -2.884  0.00  0.00    +0.000 C 
ATOM     22  C   UNL     1     -16.615  18.515  -2.876  0.00  0.00    +0.000 C 
ATOM     23  O   UNL     1     -17.467  17.905  -3.991  0.00  0.00    +0.000 OA
ATOM     24  C   UNL     1     -15.957  19.793  -3.837  0.00  0.00    +0.000 C 
ATOM     25  O   UNL     1     -14.613  19.890  -3.105  0.00  0.00    +0.000 OA
ATOM     26  C   UNL     1     -15.344  19.024  -5.266  0.00  0.00    +0.000 C 
ATOM     27  O   UNL     1     -16.732  18.831  -5.862  0.00  0.00    +0.000 OA
BRANCH  19  29
ATOM     28  O   UNL     1     -13.673  17.018  -5.677  0.00  0.00    +0.000 OA
ATOM     29  C   UNL     1     -13.916  17.102  -5.654  0.00  0.00    +0.000 C 
ENDBRANCH  19  29
ENDBRANCH  18  21
ENDBRANCH   1  18
TORSDOF 5
ENDMDL
MODEL 4
REMARK VINA RESULT:      -7.6     16.272     22.921
REMARK  Name = 
REMARK  5 active torsions:
REMARK  status: ('A' for Active; 'I' for Inactive)
REMARK    1  A    between atoms: C_2  and  C_3
REMARK    2  A    between atoms: C_5  and  O_6
REMARK    3  A    between atoms: O_6  and  C_7
REMARK    4  A    between atoms: C_12  and  C_13
REMARK    5  A    between atoms: C_14  and  C_15
REMARK                            x       y       z     vdW  Elec       q    Type
REMARK                         _______ _______ _______ _____ _____    ______ ____
ROOT
ATOM      1  C   UNL     1     -14.666  16.713  -0.518  0.00  0.00    +0.000 A 
ATOM      2  C   UNL     1     -13.485  16.924   0.200  0.00  0.00    +0.000 A 
ATOM      3  C   UNL     1     -13.089  16.096   1.232  0.00  0.00    +0.000 A 
ATOM      4  O   UNL     1     -11.773  15.870   1.585  0.00  0.00    +0.000 OA
ATOM      5  C   UNL     1     -14.181  15.567   1.910  0.00  0.00    +0.000 A 
ATOM      6  C   UNL     1     -15.241  15.083   1.143  0.00  0.00    +0.000 A 
ATOM      7  C   UNL     1     -15.520  15.764  -0.041  0.00  0.00    +0.000 A 
ENDROOT
BRANCH   6   8
ATOM      8  C   UNL     1     -15.859  13.775   1.433  0.00  0.00    +0.000 C 
ATOM      9  C   UNL     1     -15.438  13.105   2.463  0.00  0.00    +0.000 C 
BRANCH   9  10
ATOM     10  C   UNL     1     -15.011  11.728   2.530  0.00  0.00    +0.000 A 
ATOM     11  C   UNL     1     -15.769  10.651   2.080  0.00  0.00    +0.000 A 
ATOM     12  C   UNL     1     -15.499   9.402   2.629  0.00  0.00    +0.000 A 
ATOM     13  C   UNL     1     -14.435   9.264   3.499  0.00  0.00    +0.000 A 
ATOM     14  O   UNL     1     -14.495   8.482   4.658  0.00  0.00    +0.000 OA
ATOM     15  C   UNL     1     -13.418  10.194   3.309  0.00  0.00    +0.000 A 
ATOM     16  C   UNL     1     -13.672  11.442   2.758  0.00  0.00    +0.000 A 
ATOM     17  O   UNL     1     -12.692  12.368   2.475  0.00  0.00    +0.000 OA
ENDBRANCH   9  10
ENDBRANCH   6   8
BRANCH   1  18
ATOM     18  O   UNL     1     -14.817  17.697  -1.398  0.00  0.00    +0.000 OA
BRANCH  18  21
ATOM     19  C   UNL     1     -17.690  18.620  -2.623  0.00  0.00    +0.000 C 
ATOM     20  O   UNL     1     -16.565  17.603  -2.907  0.00  0.00    +0.000 OA
ATOM     21  C   UNL     1     -16.231  18.370  -1.609  0.00  0.00    +0.000 C 
ATOM     22  C   UNL     1     -15.470  19.769  -2.356  0.00  0.00    +0.000 C 
ATOM     23  O   UNL     1     -16.647  20.708  -2.081  0.00  0.00    +0.000 OA
ATOM     24  C   UNL     1     -15.750  19.632  -4.057  0.00  0.00    +0.000 C 
ATOM     25  O   UNL     1     -15.207  18.206  -4.211  0.00  0.00    +0.000 OA
ATOM     26  C   UNL     1     -17.428  19.218  -4.214  0.00  0.00    +0.000 C 
ATOM     27  O   UNL     1     -17.896  20.634  -3.906  0.00  0.00    +0.000 OA
BRANCH  19  29
ATOM     28  O   UNL     1     -19.027  17.373  -3.116  0.00  0.00    +0.000 OA
ATOM     29  C   UNL     1     -18.846  17.547  -3.172  0.00  0.00    +0.000 C 
ENDBRANCH  19  29
ENDBRANCH  18  21
ENDBRANCH   1  18
TORSDOF 5
ENDMDL
MODEL 5
REMARK VINA RESULT:      -7.6     18.315     21.519
REMARK  Name = 
REMARK  5 active torsions:
REMARK  status: ('A' for Active; 'I' for Inactive)
REMARK    1  A    between atoms: C_2  and  C_3
REMARK    2  A    between atoms: C_5  and  O_6
REMARK    3  A    between atoms: O_6  and  C_7
REMARK    4  A    between atoms: C_12  and  C_13
REMARK    5  A    between atoms: C_14  and  C_15
REMARK                            x       y       z     vdW  Elec       q    Type
REMARK                         _______ _______ _______ _____ _____    ______ ____
ROOT
ATOM      1  C   UNL     1     -26.362   8.439  -8.591  0.00  0.00    +0.000 A 
ATOM      2  C   UNL     1     -26.736   9.778  -8.443  0.00  0.00    +0.000 A 
ATOM      3  C   UNL     1     -26.195  10.593  -7.469  0.00  0.00    +0.000 A 
ATOM      4  O   UNL     1     -26.053  11.962  -7.593  0.00  0.00    +0.000 OA
ATOM      5  C   UNL     1     -25.870   9.876  -6.325  0.00  0.00    +0.000 A 
ATOM      6  C   UNL     1     -25.218   8.655  -6.496  0.00  0.00    +0.000 A 
ATOM      7  C   UNL     1     -25.576   7.904  -7.615  0.00  0.00    +0.000 A 
ENDROOT
BRANCH   6   8
ATOM      8  C   UNL     1     -24.035   8.300  -5.689  0.00  0.00    +0.000 C 
ATOM      9  C   UNL     1     -24.204   7.560  -4.634  0.00  0.00    +0.000 C 
BRANCH   9  10
ATOM     10  C   UNL     1     -23.738   7.791  -3.288  0.00  0.00    +0.000 A 
ATOM     11  C   UNL     1     -23.406   9.043  -2.778  0.00  0.00    +0.000 A 
ATOM     12  C   UNL     1     -22.532   9.086  -1.697  0.00  0.00    +0.000 A 
ATOM     13  C   UNL     1     -22.123   7.902  -1.114  0.00  0.00    +0.000 A 
ATOM     14  O   UNL     1     -20.809   7.674  -0.692  0.00  0.00    +0.000 OA
ATOM     15  C   UNL     1     -23.024   6.852  -1.261  0.00  0.00    +0.000 A 
ATOM     16  C   UNL     1     -23.906   6.800  -2.331  0.00  0.00    +0.000 A 
ATOM     17  O   UNL     1     -24.871   5.828  -2.480  0.00  0.00    +0.000 OA
ENDBRANCH   9  10
ENDBRANCH   6   8
BRANCH   1  18
ATOM     18  O   UNL     1     -27.089   7.892  -9.560  0.00  0.00    +0.000 OA
BRANCH  18  21
ATOM     19  C   UNL     1     -29.992   8.876 -10.663  0.00  0.00    +0.000 C 
ATOM     20  O   UNL     1     -29.392   7.800  -9.734  0.00  0.00    +0.000 OA
ATOM     21  C   UNL     1     -28.254   8.713 -10.243  0.00  0.00    +0.000 C 
ATOM     22  C   UNL     1     -27.961   7.888 -11.769  0.00  0.00    +0.000 C 
ATOM     23  O   UNL     1     -28.616   8.977 -12.622  0.00  0.00    +0.000 OA
ATOM     24  C   UNL     1     -29.233   6.732 -11.956  0.00  0.00    +0.000 C 
ATOM     25  O   UNL     1     -29.055   6.051 -10.593  0.00  0.00    +0.000 OA
ATOM     26  C   UNL     1     -30.691   7.584 -11.557  0.00  0.00    +0.000 C 
ATOM     27  O   UNL     1     -30.717   8.335 -12.882  0.00  0.00    +0.000 OA
BRANCH  19  29
ATOM     28  O   UNL     1     -31.473   9.123  -9.511  0.00  0.00    +0.000 OA
ATOM     29  C   UNL     1     -31.350   9.000  -9.700  0.00  0.00    +0.000 C 
ENDBRANCH  19  29
ENDBRANCH  18  21
ENDBRANCH   1  18
TORSDOF 5
ENDMDL
MODEL 6
REMARK VINA RESULT:      -7.5     20.362     23.078
REMARK  Name = 
REMARK  5 active torsions:
REMARK  status: ('A' for Active; 'I' for Inactive)
REMARK    1  A    between atoms: C_2  and  C_3
REMARK    2  A    between atoms: C_5  and  O_6
REMARK    3  A    between atoms: O_6  and  C_7
REMARK    4  A    between atoms: C_12  and  C_13
REMARK    5  A    between atoms: C_14  and  C_15
REMARK                            x       y       z     vdW  Elec       q    Type
REMARK                         _______ _______ _______ _____ _____    ______ ____
ROOT
ATOM      1  C   UNL     1     -30.087   7.084 -10.064  0.00  0.00    +0.000 A 
ATOM      2  C   UNL     1     -30.009   5.751 -10.478  0.00  0.00    +0.000 A 
ATOM      3  C   UNL     1     -28.814   5.062 -10.531  0.00  0.00    +0.000 A 
ATOM      4  O   UNL     1     -28.696   3.696 -10.361  0.00  0.00    +0.000 OA
ATOM      5  C   UNL     1     -27.753   5.904 -10.838  0.00  0.00    +0.000 A 
ATOM      6  C   UNL     1     -27.694   7.131 -10.176  0.00  0.00    +0.000 A 
ATOM      7  C   UNL     1     -28.910   7.750  -9.893  0.00  0.00    +0.000 A 
ENDROOT
BRANCH   6   8
ATOM      8  C   UNL     1     -26.435   7.618  -9.580  0.00  0.00    +0.000 C 
ATOM      9  C   UNL     1     -26.094   7.177  -8.406  0.00  0.00    +0.000 C 
BRANCH   9  10
ATOM     10  C   UNL     1     -25.702   7.931  -7.239  0.00  0.00    +0.000 A 
ATOM     11  C   UNL     1     -24.507   8.634  -7.126  0.00  0.00    +0.000 A 
ATOM     12  C   UNL     1     -24.027   8.885  -5.845  0.00  0.00    +0.000 A 
ATOM     13  C   UNL     1     -24.799   8.531  -4.756  0.00  0.00    +0.000 A 
ATOM     14  O   UNL     1     -24.265   7.956  -3.598  0.00  0.00    +0.000 OA
ATOM     15  C   UNL     1     -26.167   8.497  -5.011  0.00  0.00    +0.000 A 
ATOM     16  C   UNL     1     -26.659   8.252  -6.286  0.00  0.00    +0.000 A 
ATOM     17  O   UNL     1     -27.997   8.288  -6.609  0.00  0.00    +0.000 OA
ENDBRANCH   9  10
ENDBRANCH   6   8
BRANCH   1  18
ATOM     18  O   UNL     1     -31.345   7.498 -10.176  0.00  0.00    +0.000 OA
BRANCH  18  21
ATOM     19  C   UNL     1     -33.628   6.992  -7.908  0.00  0.00    +0.000 C 
ATOM     20  O   UNL     1     -33.013   6.284  -9.133  0.00  0.00    +0.000 OA
ATOM     21  C   UNL     1     -32.264   7.614  -8.896  0.00  0.00    +0.000 C 
ATOM     22  C   UNL     1     -33.374   8.662  -9.770  0.00  0.00    +0.000 C 
ATOM     23  O   UNL     1     -33.971   9.287  -8.506  0.00  0.00    +0.000 OA
ATOM     24  C   UNL     1     -34.757   7.701 -10.159  0.00  0.00    +0.000 C 
ATOM     25  O   UNL     1     -33.992   6.554 -10.830  0.00  0.00    +0.000 OA
ATOM     26  C   UNL     1     -35.147   6.845  -8.700  0.00  0.00    +0.000 C 
ATOM     27  O   UNL     1     -35.762   8.073  -8.042  0.00  0.00    +0.000 OA
BRANCH  19  29
ATOM     28  O   UNL     1     -33.793   5.279  -7.119  0.00  0.00    +0.000 OA
ATOM     29  C   UNL     1     -33.847   5.530  -7.130  0.00  0.00    +0.000 C 
ENDBRANCH  19  29
ENDBRANCH  18  21
ENDBRANCH   1  18
TORSDOF 5
ENDMDL
MODEL 7
REMARK VINA RESULT:      -7.5      2.168      8.814
REMARK  Name = 
REMARK  5 active torsions:
REMARK  status: ('A' for Active; 'I' for Inactive)
REMARK    1  A    between atoms: C_2  and  C_3
REMARK    2  A    between atoms: C_5  and  O_6
REMARK    3  A    between atoms: O_6  and  C_7
REMARK    4  A    between atoms: C_12  and  C_13
REMARK    5  A    between atoms: C_14  and  C_15
REMARK                            x       y       z     vdW  Elec       q    Type
REMARK                         _______ _______ _______ _____ _____    ______ ____
ROOT
ATOM      1  C   UNL     1     -18.302  -4.444   7.342  0.00  0.00    +0.000 A 
ATOM      2  C   UNL     1     -18.920  -5.389   8.167  0.00  0.00    +0.000 A 
ATOM      3  C   UNL     1     -18.868  -6.744   7.907  0.00  0.00    +0.000 A 
ATOM      4  O   UNL     1     -18.920  -7.724   8.879  0.00  0.00    +0.000 OA
ATOM      5  C   UNL     1     -18.820  -7.000   6.543  0.00  0.00    +0.000 A 
ATOM      6  C   UNL     1     -17.956  -6.222   5.773  0.00  0.00    +0.000 A 
ATOM      7  C   UNL     1     -17.801  -4.891   6.156  0.00  0.00    +0.000 A 
ENDROOT
BRANCH   6   8
ATOM      8  C   UNL     1     -17.059  -6.835   4.774  0.00  0.00    +0.000 C 
ATOM      9  C   UNL     1     -17.502  -7.838   4.077  0.00  0.00    +0.000 C 
BRANCH   9  10
ATOM     10  C   UNL     1     -16.888  -9.126   3.861  0.00  0.00    +0.000 A 
ATOM     11  C   UNL     1     -16.033  -9.418   2.802  0.00  0.00    +0.000 A 
ATOM     12  C   UNL     1     -15.913 -10.751   2.422  0.00  0.00    +0.000 A 
ATOM     13  C   UNL     1     -16.549 -11.724   3.168  0.00  0.00    +0.000 A 
ATOM     14  O   UNL     1     -17.206 -12.817   2.592  0.00  0.00    +0.000 OA
ATOM     15  C   UNL     1     -16.756 -11.378   4.499  0.00  0.00    +0.000 A 
ATOM     16  C   UNL     1     -16.872 -10.053   4.894  0.00  0.00    +0.000 A 
ATOM     17  O   UNL     1     -16.996  -9.653   6.206  0.00  0.00    +0.000 OA
ENDBRANCH   9  10
ENDBRANCH   6   8
BRANCH   1  18
ATOM     18  O   UNL     1     -18.574  -3.227   7.802  0.00  0.00    +0.000 OA
BRANCH  18  21
ATOM     19  C   UNL     1     -18.576  -0.382   6.215  0.00  0.00    +0.000 C 
ATOM     20  O   UNL     1     -17.733  -1.143   7.259  0.00  0.00    +0.000 OA
ATOM     21  C   UNL     1     -18.897  -2.049   6.800  0.00  0.00    +0.000 C 
ATOM     22  C   UNL     1     -20.120  -1.428   7.901  0.00  0.00    +0.000 C 
ATOM     23  O   UNL     1     -20.879  -0.658   6.817  0.00  0.00    +0.000 OA
ATOM     24  C   UNL     1     -19.437  -0.033   8.661  0.00  0.00    +0.000 C 
ATOM     25  O   UNL     1     -18.148  -0.709   9.143  0.00  0.00    +0.000 OA
ATOM     26  C   UNL     1     -18.710   0.879   7.377  0.00  0.00    +0.000 C 
ATOM     27  O   UNL     1     -20.049   1.392   6.866  0.00  0.00    +0.000 OA
BRANCH  19  29
ATOM     28  O   UNL     1     -17.001   0.286   5.405  0.00  0.00    +0.000 OA
ATOM     29  C   UNL     1     -17.205   0.310   5.561  0.00  0.00    +0.000 C 
ENDBRANCH  19  29
ENDBRANCH  18  21
ENDBRANCH   1  18
TORSDOF 5
ENDMDL
MODEL 8
REMARK VINA RESULT:      -7.4      5.339      8.739
REMARK  Name = 
REMARK  5 active torsions:
REMARK  status: ('A' for Active; 'I' for Inactive)
REMARK    1  A    between atoms: C_2  and  C_3
REMARK    2  A    between atoms: C_5  and  O_6
REMARK    3  A    between atoms: O_6  and  C_7
REMARK    4  A    between atoms: C_12  and  C_13
REMARK    5  A    between atoms: C_14  and  C_15
REMARK                            x       y       z     vdW  Elec       q    Type
REMARK                         _______ _______ _______ _____ _____    ______ ____
ROOT
ATOM      1  C   UNL     1     -20.924  -2.782   8.211  0.00  0.00    +0.000 A 
ATOM      2  C   UNL     1     -20.775  -4.023   8.838  0.00  0.00    +0.000 A 
ATOM      3  C   UNL     1     -21.825  -4.909   8.984  0.00  0.00    +0.000 A 
ATOM      4  O   UNL     1     -21.680  -6.281   9.040  0.00  0.00    +0.000 OA
ATOM      5  C   UNL     1     -23.036  -4.245   9.129  0.00  0.00    +0.000 A 
ATOM      6  C   UNL     1     -23.288  -3.172   8.273  0.00  0.00    +0.000 A 
ATOM      7  C   UNL     1     -22.194  -2.388   7.912  0.00  0.00    +0.000 A 
ENDROOT
BRANCH   6   8
ATOM      8  C   UNL     1     -24.585  -3.034   7.582  0.00  0.00    +0.000 C 
ATOM      9  C   UNL     1     -24.720  -2.087   6.703  0.00  0.00    +0.000 C 
BRANCH   9  10
ATOM     10  C   UNL     1     -25.761  -1.092   6.602  0.00  0.00    +0.000 A 
ATOM     11  C   UNL     1     -26.072  -0.180   7.607  0.00  0.00    +0.000 A 
ATOM     12  C   UNL     1     -27.352   0.362   7.609  0.00  0.00    +0.000 A 
ATOM     13  C   UNL     1     -28.211   0.065   6.569  0.00  0.00    +0.000 A 
ATOM     14  O   UNL     1     -29.571  -0.205   6.758  0.00  0.00    +0.000 OA
ATOM     15  C   UNL     1     -27.573  -0.253   5.374  0.00  0.00    +0.000 A 
ATOM     16  C   UNL     1     -26.293  -0.789   5.357  0.00  0.00    +0.000 A 
ATOM     17  O   UNL     1     -25.586  -1.045   4.203  0.00  0.00    +0.000 OA
ENDBRANCH   9  10
ENDBRANCH   6   8
BRANCH   1  18
ATOM     18  O   UNL     1     -19.771  -2.125   8.275  0.00  0.00    +0.000 OA
BRANCH  18  21
ATOM     19  C   UNL     1     -19.259   0.465   6.367  0.00  0.00    +0.000 C 
ATOM     20  O   UNL     1     -19.332  -1.073   6.264  0.00  0.00    +0.000 OA
ATOM     21  C   UNL     1     -19.659  -0.652   7.714  0.00  0.00    +0.000 C 
ATOM     22  C   UNL     1     -18.004  -0.539   8.300  0.00  0.00    +0.000 C 
ATOM     23  O   UNL     1     -17.991   0.991   8.330  0.00  0.00    +0.000 OA
ATOM     24  C   UNL     1     -16.980  -0.695   6.916  0.00  0.00    +0.000 C 
ATOM     25  O   UNL     1     -17.590  -2.000   6.391  0.00  0.00    +0.000 OA
ATOM     26  C   UNL     1     -17.674   0.343   5.711  0.00  0.00    +0.000 C 
ATOM     27  O   UNL     1     -17.154   1.609   6.378  0.00  0.00    +0.000 OA
BRANCH  19  29
ATOM     28  O   UNL     1     -20.100   0.741   4.693  0.00  0.00    +0.000 OA
ATOM     29  C   UNL     1     -19.921   0.632   4.843  0.00  0.00    +0.000 C 
ENDBRANCH  19  29
ENDBRANCH  18  21
ENDBRANCH   1  18
TORSDOF 5
ENDMDL
MODEL 9
REMARK VINA RESULT:      -7.4      2.427      8.935
REMARK  Name = 
REMARK  5 active torsions:
REMARK  status: ('A' for Active; 'I' for Inactive)
REMARK    1  A    between atoms: C_2  and  C_3
REMARK    2  A    between atoms: C_5  and  O_6
REMARK    3  A    between atoms: O_6  and  C_7
REMARK    4  A    between atoms: C_12  and  C_13
REMARK    5  A    between atoms: C_14  and  C_15
REMARK                            x       y       z     vdW  Elec       q    Type
REMARK                         _______ _______ _______ _____ _____    ______ ____
ROOT
ATOM      1  C   UNL     1     -17.725  -4.620   5.958  0.00  0.00    +0.000 A 
ATOM      2  C   UNL     1     -18.472  -5.231   6.970  0.00  0.00    +0.000 A 
ATOM      3  C   UNL     1     -18.472  -6.598   7.165  0.00  0.00    +0.000 A 
ATOM      4  O   UNL     1     -18.672  -7.208   8.388  0.00  0.00    +0.000 OA
ATOM      5  C   UNL     1     -18.308  -7.285   5.969  0.00  0.00    +0.000 A 
ATOM      6  C   UNL     1     -17.331  -6.818   5.089  0.00  0.00    +0.000 A 
ATOM      7  C   UNL     1     -17.139  -5.439   5.040  0.00  0.00    +0.000 A 
ENDROOT
BRANCH   6   8
ATOM      8  C   UNL     1     -16.379  -7.743   4.443  0.00  0.00    +0.000 C 
ATOM      9  C   UNL     1     -16.850  -8.695   3.695  0.00  0.00    +0.000 C 
BRANCH   9  10
ATOM     10  C   UNL     1     -16.555 -10.107   3.741  0.00  0.00    +0.000 A 
ATOM     11  C   UNL     1     -16.691 -10.898   4.877  0.00  0.00    +0.000 A 
ATOM     12  C   UNL     1     -15.936 -12.064   4.942  0.00  0.00    +0.000 A 
ATOM     13  C   UNL     1     -15.179 -12.439   3.849  0.00  0.00    +0.000 A 
ATOM     14  O   UNL     1     -13.888 -12.964   3.960  0.00  0.00    +0.000 OA
ATOM     15  C   UNL     1     -15.664 -11.971   2.632  0.00  0.00    +0.000 A 
ATOM     16  C   UNL     1     -16.424 -10.812   2.553  0.00  0.00    +0.000 A 
ATOM     17  O   UNL     1     -16.995 -10.350   1.387  0.00  0.00    +0.000 OA
ENDBRANCH   9  10
ENDBRANCH   6   8
BRANCH   1  18
ATOM     18  O   UNL     1     -17.970  -3.314   5.971  0.00  0.00    +0.000 OA
BRANCH  18  21
ATOM     19  C   UNL     1     -18.808  -1.597   8.609  0.00  0.00    +0.000 C 
ATOM     20  O   UNL     1     -19.473  -2.379   7.458  0.00  0.00    +0.000 OA
ATOM     21  C   UNL     1     -17.939  -2.509   7.330  0.00  0.00    +0.000 C 
ATOM     22  C   UNL     1     -17.652  -1.011   6.455  0.00  0.00    +0.000 C 
ATOM     23  O   UNL     1     -17.045  -0.283   7.657  0.00  0.00    +0.000 OA
ATOM     24  C   UNL     1     -19.147  -0.142   6.462  0.00  0.00    +0.000 C 
ATOM     25  O   UNL     1     -20.015  -1.279   5.907  0.00  0.00    +0.000 OA
ATOM     26  C   UNL     1     -19.726  -0.237   8.095  0.00  0.00    +0.000 C 
ATOM     27  O   UNL     1     -18.730   0.798   8.600  0.00  0.00    +0.000 OA
BRANCH  19  29
ATOM     28  O   UNL     1     -20.131  -2.253   9.794  0.00  0.00    +0.000 OA
ATOM     29  C   UNL     1     -20.013  -2.062   9.668  0.00  0.00    +0.000 C 
ENDBRANCH  19  29
ENDBRANCH  18  21
ENDBRANCH   1  18
TORSDOF 5
ENDMDL
MODEL 10
REMARK VINA RESULT:      -7.4     14.596     18.265
REMARK  Name = 
REMARK  5 active torsions:
REMARK  status: ('A' for Active; 'I' for Inactive)
REMARK    1  A    between atoms: C_2  and  C_3
REMARK    2  A    between atoms: C_5  and  O_6
REMARK    3  A    between atoms: O_6  and  C_7
REMARK    4  A    between atoms: C_12  and  C_13
REMARK    5  A    between atoms: C_14  and  C_15
REMARK                            x       y       z     vdW  Elec       q    Type
REMARK                         _______ _______ _______ _____ _____    ______ ____
ROOT
ATOM      1  C   UNL     1     -23.375   7.996  -2.284  0.00  0.00    +0.000 A 
ATOM      2  C   UNL     1     -22.565   8.977  -1.705  0.00  0.00    +0.000 A 
ATOM      3  C   UNL     1     -22.344  10.201  -2.305  0.00  0.00    +0.000 A 
ATOM      4  O   UNL     1     -22.078  11.368  -1.614  0.00  0.00    +0.000 OA
ATOM      5  C   UNL     1     -22.359  10.101  -3.690  0.00  0.00    +0.000 A 
ATOM      6  C   UNL     1     -23.375   9.340  -4.268  0.00  0.00    +0.000 A 
ATOM      7  C   UNL     1     -23.792   8.212  -3.564  0.00  0.00    +0.000 A 
ENDROOT
BRANCH   6   8
ATOM      8  C   UNL     1     -24.143   9.842  -5.424  0.00  0.00    +0.000 C 
ATOM      9  C   UNL     1     -25.312   9.327  -5.663  0.00  0.00    +0.000 C 
BRANCH   9  10
ATOM     10  C   UNL     1     -25.825   8.792  -6.901  0.00  0.00    +0.000 A 
ATOM     11  C   UNL     1     -25.029   8.349  -7.952  0.00  0.00    +0.000 A 
ATOM     12  C   UNL     1     -25.593   8.333  -9.223  0.00  0.00    +0.000 A 
ATOM     13  C   UNL     1     -26.930   8.645  -9.370  0.00  0.00    +0.000 A 
ATOM     14  O   UNL     1     -27.418   9.431 -10.419  0.00  0.00    +0.000 OA
ATOM     15  C   UNL     1     -27.704   8.387  -8.243  0.00  0.00    +0.000 A 
ATOM     16  C   UNL     1     -27.153   8.394  -6.970  0.00  0.00    +0.000 A 
ATOM     17  O   UNL     1     -27.855   8.067  -5.831  0.00  0.00    +0.000 OA
ENDBRANCH   9  10
ENDBRANCH   6   8
BRANCH   1  18
ATOM     18  O   UNL     1     -23.351   6.910  -1.519  0.00  0.00    +0.000 OA
BRANCH  18  21
ATOM     19  C   UNL     1     -25.877   4.864  -1.726  0.00  0.00    +0.000 C 
ATOM     20  O   UNL     1     -25.569   6.307  -1.274  0.00  0.00    +0.000 OA
ATOM     21  C   UNL     1     -24.282   5.677  -1.852  0.00  0.00    +0.000 C 
ATOM     22  C   UNL     1     -23.749   4.860  -0.388  0.00  0.00    +0.000 C 
ATOM     23  O   UNL     1     -24.125   3.462  -0.886  0.00  0.00    +0.000 OA
ATOM     24  C   UNL     1     -25.043   4.994   0.750  0.00  0.00    +0.000 C 
ATOM     25  O   UNL     1     -25.203   6.516   0.657  0.00  0.00    +0.000 OA
ATOM     26  C   UNL     1     -26.479   4.594  -0.138  0.00  0.00    +0.000 C 
ATOM     27  O   UNL     1     -26.172   3.102  -0.130  0.00  0.00    +0.000 OA
BRANCH  19  29
ATOM     28  O   UNL     1     -27.534   5.420  -2.455  0.00  0.00    +0.000 OA
ATOM     29  C   UNL     1     -27.390   5.320  -2.266  0.00  0.00    +0.000 C 
ENDBRANCH  19  29
ENDBRANCH  18  21
ENDBRANCH   1  18
TORSDOF 5
ENDMDL
