MODEL 1
REMARK VINA RESULT:      -6.0      0.000      0.000
REMARK  Name = 
REMARK  6 active torsions:
REMARK  status: ('A' for Active; 'I' for Inactive)
REMARK    1  A    between atoms: O_2  and  C_3
REMARK    2  A    between atoms: C_6  and  C_7
REMARK    3  A    between atoms: C_14  and  O_15
REMARK    4  A    between atoms: C_17  and  O_18
REMARK    5  A    between atoms: C_22  and  O_23
REMARK    6  A    between atoms: C_25  and  O_26
REMARK                            x       y       z     vdW  Elec       q    Type
REMARK                         _______ _______ _______ _____ _____    ______ ____
ROOT
ATOM      1  C   UNL     1     -26.095   8.077  -7.739  0.00  0.00    +0.000 C 
ATOM      2  C   UNL     1     -26.698   8.718  -8.712  0.00  0.00    +0.000 C 
ATOM      3  C   UNL     1     -26.994  10.146  -8.721  0.00  0.00    +0.000 C 
ATOM      4  O   UNL     1     -26.310  10.978  -8.090  0.00  0.00    +0.000 OA
ATOM      5  N   UNL     1     -27.943  10.322  -9.770  0.00  0.00    +0.000 NA
ATOM      6  C   UNL     1     -28.387   9.049 -10.254  0.00  0.00    +0.000 A 
ATOM      7  C   UNL     1     -29.490   8.634 -10.989  0.00  0.00    +0.000 A 
ATOM      8  C   UNL     1     -29.646   7.269 -11.193  0.00  0.00    +0.000 A 
ATOM      9  C   UNL     1     -28.491   6.501 -11.142  0.00  0.00    +0.000 A 
ATOM     10  C   UNL     1     -27.373   6.906 -10.456  0.00  0.00    +0.000 A 
ATOM     11  C   UNL     1     -27.379   8.168  -9.884  0.00  0.00    +0.000 A 
ENDROOT
BRANCH   1  15
ATOM     12  C   UNL     1     -24.213   8.456  -4.078  0.00  0.00    +0.000 A 
ATOM     13  C   UNL     1     -23.560   8.776  -5.244  0.00  0.00    +0.000 A 
ATOM     14  C   UNL     1     -24.294   9.032  -6.397  0.00  0.00    +0.000 A 
ATOM     15  C   UNL     1     -25.644   8.723  -6.499  0.00  0.00    +0.000 A 
ATOM     16  C   UNL     1     -26.246   8.253  -5.342  0.00  0.00    +0.000 A 
ATOM     17  C   UNL     1     -25.591   8.311  -4.123  0.00  0.00    +0.000 A 
BRANCH  12  19
ATOM     18  C   UNL     1     -22.827   8.520  -2.035  0.00  0.00    +0.000 C 
ATOM     19  O   UNL     1     -23.577   7.831  -2.999  0.00  0.00    +0.000 OA
ENDBRANCH  12  19
BRANCH  16  20
ATOM     20  O   UNL     1     -27.638   8.115  -5.328  0.00  0.00    +0.000 OA
ATOM     21  C   UNL     1     -28.365   9.341  -5.297  0.00  0.00    +0.000 C 
ENDBRANCH  16  20
BRANCH  17  22
ATOM     22  O   UNL     1     -26.293   7.965  -2.969  0.00  0.00    +0.000 OA
ATOM     23  C   UNL     1     -26.661   8.975  -2.060  0.00  0.00    +0.000 C 
ENDBRANCH  17  22
ENDBRANCH   1  15
BRANCH   8  24
ATOM     24  O   UNL     1     -30.880   6.658 -11.296  0.00  0.00    +0.000 OA
ATOM     25  C   UNL     1     -32.017   7.149 -10.610  0.00  0.00    +0.000 C 
ENDBRANCH   8  24
BRANCH   9  26
ATOM     26  O   UNL     1     -28.631   5.160 -11.500  0.00  0.00    +0.000 OA
ATOM     27  C   UNL     1     -28.854   4.125 -10.573  0.00  0.00    +0.000 C 
ENDBRANCH   9  26
TORSDOF 6
ENDMDL
MODEL 2
REMARK VINA RESULT:      -5.7      3.403      8.668
REMARK  Name = 
REMARK  6 active torsions:
REMARK  status: ('A' for Active; 'I' for Inactive)
REMARK    1  A    between atoms: O_2  and  C_3
REMARK    2  A    between atoms: C_6  and  C_7
REMARK    3  A    between atoms: C_14  and  O_15
REMARK    4  A    between atoms: C_17  and  O_18
REMARK    5  A    between atoms: C_22  and  O_23
REMARK    6  A    between atoms: C_25  and  O_26
REMARK                            x       y       z     vdW  Elec       q    Type
REMARK                         _______ _______ _______ _____ _____    ______ ____
ROOT
ATOM      1  C   UNL     1     -24.038   9.790  -5.594  0.00  0.00    +0.000 C 
ATOM      2  C   UNL     1     -23.483   9.485  -4.446  0.00  0.00    +0.000 C 
ATOM      3  C   UNL     1     -23.744   8.269  -3.683  0.00  0.00    +0.000 C 
ATOM      4  O   UNL     1     -24.105   7.203  -4.221  0.00  0.00    +0.000 OA
ATOM      5  N   UNL     1     -23.221   8.527  -2.382  0.00  0.00    +0.000 NA
ATOM      6  C   UNL     1     -22.846   9.905  -2.265  0.00  0.00    +0.000 A 
ATOM      7  C   UNL     1     -22.611  10.746  -1.184  0.00  0.00    +0.000 A 
ATOM      8  C   UNL     1     -22.356  12.083  -1.458  0.00  0.00    +0.000 A 
ATOM      9  C   UNL     1     -21.835  12.368  -2.712  0.00  0.00    +0.000 A 
ATOM     10  C   UNL     1     -22.018  11.535  -3.787  0.00  0.00    +0.000 A 
ATOM     11  C   UNL     1     -22.662  10.327  -3.575  0.00  0.00    +0.000 A 
ENDROOT
BRANCH   1  15
ATOM     12  C   UNL     1     -26.705   8.588  -8.515  0.00  0.00    +0.000 A 
ATOM     13  C   UNL     1     -25.388   8.202  -8.560  0.00  0.00    +0.000 A 
ATOM     14  C   UNL     1     -24.612   8.261  -7.408  0.00  0.00    +0.000 A 
ATOM     15  C   UNL     1     -25.027   8.939  -6.270  0.00  0.00    +0.000 A 
ATOM     16  C   UNL     1     -26.313   9.456  -6.308  0.00  0.00    +0.000 A 
ATOM     17  C   UNL     1     -27.189   9.113  -7.326  0.00  0.00    +0.000 A 
BRANCH  12  19
ATOM     18  C   UNL     1     -28.088   7.967 -10.465  0.00  0.00    +0.000 C 
ATOM     19  O   UNL     1     -27.441   8.916  -9.660  0.00  0.00    +0.000 OA
ENDBRANCH  12  19
BRANCH  16  20
ATOM     20  O   UNL     1     -26.856   9.972  -5.128  0.00  0.00    +0.000 OA
ATOM     21  C   UNL     1     -27.246   8.995  -4.165  0.00  0.00    +0.000 C 
ENDBRANCH  16  20
BRANCH  17  22
ATOM     22  O   UNL     1     -28.514   9.537  -7.240  0.00  0.00    +0.000 OA
ATOM     23  C   UNL     1     -29.526   8.588  -7.002  0.00  0.00    +0.000 C 
ENDBRANCH  17  22
ENDBRANCH   1  15
BRANCH   8  24
ATOM     24  O   UNL     1     -22.727  13.111  -0.612  0.00  0.00    +0.000 OA
ATOM     25  C   UNL     1     -24.077  13.514  -0.473  0.00  0.00    +0.000 C 
ENDBRANCH   8  24
BRANCH   9  26
ATOM     26  O   UNL     1     -21.438  13.689  -2.925  0.00  0.00    +0.000 OA
ATOM     27  C   UNL     1     -21.868  14.466  -4.015  0.00  0.00    +0.000 C 
ENDBRANCH   9  26
TORSDOF 6
ENDMDL
MODEL 3
REMARK VINA RESULT:      -5.6     13.746     17.186
REMARK  Name = 
REMARK  6 active torsions:
REMARK  status: ('A' for Active; 'I' for Inactive)
REMARK    1  A    between atoms: O_2  and  C_3
REMARK    2  A    between atoms: C_6  and  C_7
REMARK    3  A    between atoms: C_14  and  O_15
REMARK    4  A    between atoms: C_17  and  O_18
REMARK    5  A    between atoms: C_22  and  O_23
REMARK    6  A    between atoms: C_25  and  O_26
REMARK                            x       y       z     vdW  Elec       q    Type
REMARK                         _______ _______ _______ _____ _____    ______ ____
ROOT
ATOM      1  C   UNL     1     -35.507  -4.900  -3.699  0.00  0.00    +0.000 C 
ATOM      2  C   UNL     1     -34.709  -3.939  -4.100  0.00  0.00    +0.000 C 
ATOM      3  C   UNL     1     -35.091  -2.842  -4.983  0.00  0.00    +0.000 C 
ATOM      4  O   UNL     1     -36.261  -2.414  -5.054  0.00  0.00    +0.000 OA
ATOM      5  N   UNL     1     -33.860  -2.272  -5.421  0.00  0.00    +0.000 NA
ATOM      6  C   UNL     1     -32.761  -3.095  -5.013  0.00  0.00    +0.000 A 
ATOM      7  C   UNL     1     -31.439  -3.205  -5.428  0.00  0.00    +0.000 A 
ATOM      8  C   UNL     1     -30.671  -4.209  -4.854  0.00  0.00    +0.000 A 
ATOM      9  C   UNL     1     -31.065  -4.648  -3.598  0.00  0.00    +0.000 A 
ATOM     10  C   UNL     1     -32.354  -4.515  -3.148  0.00  0.00    +0.000 A 
ATOM     11  C   UNL     1     -33.257  -3.832  -3.946  0.00  0.00    +0.000 A 
ENDROOT
BRANCH   1  15
ATOM     12  C   UNL     1     -39.356  -6.401  -3.826  0.00  0.00    +0.000 A 
ATOM     13  C   UNL     1     -39.018  -5.398  -2.950  0.00  0.00    +0.000 A 
ATOM     14  C   UNL     1     -37.877  -4.637  -3.180  0.00  0.00    +0.000 A 
ATOM     15  C   UNL     1     -36.914  -5.010  -4.108  0.00  0.00    +0.000 A 
ATOM     16  C   UNL     1     -37.213  -6.124  -4.877  0.00  0.00    +0.000 A 
ATOM     17  C   UNL     1     -38.484  -6.676  -4.868  0.00  0.00    +0.000 A 
BRANCH  12  19
ATOM     18  C   UNL     1     -40.020  -8.336  -2.442  0.00  0.00    +0.000 C 
ATOM     19  O   UNL     1     -40.240  -7.433  -3.493  0.00  0.00    +0.000 OA
ENDBRANCH  12  19
BRANCH  16  20
ATOM     20  O   UNL     1     -36.379  -6.427  -5.957  0.00  0.00    +0.000 OA
ATOM     21  C   UNL     1     -36.482  -5.539  -7.068  0.00  0.00    +0.000 C 
ENDBRANCH  16  20
BRANCH  17  22
ATOM     22  O   UNL     1     -38.776  -7.699  -5.769  0.00  0.00    +0.000 OA
ATOM     23  C   UNL     1     -39.644  -7.439  -6.846  0.00  0.00    +0.000 C 
ENDBRANCH  17  22
ENDBRANCH   1  15
BRANCH   8  24
ATOM     24  O   UNL     1     -29.657  -4.862  -5.529  0.00  0.00    +0.000 OA
ATOM     25  C   UNL     1     -29.091  -4.336  -6.716  0.00  0.00    +0.000 C 
ENDBRANCH   8  24
BRANCH   9  26
ATOM     26  O   UNL     1     -30.203  -5.543  -2.963  0.00  0.00    +0.000 OA
ATOM     27  C   UNL     1     -30.536  -6.881  -2.686  0.00  0.00    +0.000 C 
ENDBRANCH   9  26
TORSDOF 6
ENDMDL
MODEL 4
REMARK VINA RESULT:      -5.6     13.217     15.367
REMARK  Name = 
REMARK  6 active torsions:
REMARK  status: ('A' for Active; 'I' for Inactive)
REMARK    1  A    between atoms: O_2  and  C_3
REMARK    2  A    between atoms: C_6  and  C_7
REMARK    3  A    between atoms: C_14  and  O_15
REMARK    4  A    between atoms: C_17  and  O_18
REMARK    5  A    between atoms: C_22  and  O_23
REMARK    6  A    between atoms: C_25  and  O_26
REMARK                            x       y       z     vdW  Elec       q    Type
REMARK                         _______ _______ _______ _____ _____    ______ ____
ROOT
ATOM      1  C   UNL     1     -34.930  -3.413  -6.717  0.00  0.00    +0.000 C 
ATOM      2  C   UNL     1     -36.158  -3.108  -6.372  0.00  0.00    +0.000 C 
ATOM      3  C   UNL     1     -36.634  -2.964  -5.000  0.00  0.00    +0.000 C 
ATOM      4  O   UNL     1     -35.885  -2.628  -4.061  0.00  0.00    +0.000 OA
ATOM      5  N   UNL     1     -38.056  -2.988  -5.096  0.00  0.00    +0.000 NA
ATOM      6  C   UNL     1     -38.456  -3.345  -6.425  0.00  0.00    +0.000 A 
ATOM      7  C   UNL     1     -39.638  -3.826  -6.974  0.00  0.00    +0.000 A 
ATOM      8  C   UNL     1     -39.627  -4.161  -8.322  0.00  0.00    +0.000 A 
ATOM      9  C   UNL     1     -38.681  -3.521  -9.110  0.00  0.00    +0.000 A 
ATOM     10  C   UNL     1     -37.524  -3.002  -8.587  0.00  0.00    +0.000 A 
ATOM     11  C   UNL     1     -37.354  -3.038  -7.213  0.00  0.00    +0.000 A 
ENDROOT
BRANCH   1  15
ATOM     12  C   UNL     1     -31.129  -4.300  -5.355  0.00  0.00    +0.000 A 
ATOM     13  C   UNL     1     -31.527  -2.998  -5.541  0.00  0.00    +0.000 A 
ATOM     14  C   UNL     1     -32.882  -2.693  -5.603  0.00  0.00    +0.000 A 
ATOM     15  C   UNL     1     -33.855  -3.672  -5.750  0.00  0.00    +0.000 A 
ATOM     16  C   UNL     1     -33.405  -4.983  -5.713  0.00  0.00    +0.000 A 
ATOM     17  C   UNL     1     -32.109  -5.281  -5.326  0.00  0.00    +0.000 A 
BRANCH  12  19
ATOM     18  C   UNL     1     -29.092  -4.303  -6.751  0.00  0.00    +0.000 C 
ATOM     19  O   UNL     1     -29.837  -4.748  -5.649  0.00  0.00    +0.000 OA
ENDBRANCH  12  19
BRANCH  16  20
ATOM     20  O   UNL     1     -34.354  -6.008  -5.656  0.00  0.00    +0.000 OA
ATOM     21  C   UNL     1     -35.003  -6.160  -4.396  0.00  0.00    +0.000 C 
ENDBRANCH  16  20
BRANCH  17  22
ATOM     22  O   UNL     1     -31.750  -6.618  -5.161  0.00  0.00    +0.000 OA
ATOM     23  C   UNL     1     -31.486  -7.104  -3.867  0.00  0.00    +0.000 C 
ENDBRANCH  17  22
ENDBRANCH   1  15
BRANCH   8  24
ATOM     24  O   UNL     1     -40.398  -5.177  -8.853  0.00  0.00    +0.000 OA
ATOM     25  C   UNL     1     -40.353  -6.496  -8.338  0.00  0.00    +0.000 C 
ENDBRANCH   8  24
BRANCH   9  26
ATOM     26  O   UNL     1     -38.776  -3.745 -10.484  0.00  0.00    +0.000 OA
ATOM     27  C   UNL     1     -39.112  -2.745 -11.415  0.00  0.00    +0.000 C 
ENDBRANCH   9  26
TORSDOF 6
ENDMDL
MODEL 5
REMARK VINA RESULT:      -5.5      3.834      6.447
REMARK  Name = 
REMARK  6 active torsions:
REMARK  status: ('A' for Active; 'I' for Inactive)
REMARK    1  A    between atoms: O_2  and  C_3
REMARK    2  A    between atoms: C_6  and  C_7
REMARK    3  A    between atoms: C_14  and  O_15
REMARK    4  A    between atoms: C_17  and  O_18
REMARK    5  A    between atoms: C_22  and  O_23
REMARK    6  A    between atoms: C_25  and  O_26
REMARK                            x       y       z     vdW  Elec       q    Type
REMARK                         _______ _______ _______ _____ _____    ______ ____
ROOT
ATOM      1  C   UNL     1     -23.715   7.651  -3.033  0.00  0.00    +0.000 C 
ATOM      2  C   UNL     1     -23.430   8.879  -3.394  0.00  0.00    +0.000 C 
ATOM      3  C   UNL     1     -22.873   9.905  -2.518  0.00  0.00    +0.000 C 
ATOM      4  O   UNL     1     -22.165   9.631  -1.527  0.00  0.00    +0.000 OA
ATOM      5  N   UNL     1     -23.066  11.134  -3.215  0.00  0.00    +0.000 NA
ATOM      6  C   UNL     1     -23.892  10.924  -4.366  0.00  0.00    +0.000 A 
ATOM      7  C   UNL     1     -24.644  11.769  -5.174  0.00  0.00    +0.000 A 
ATOM      8  C   UNL     1     -25.416  11.183  -6.168  0.00  0.00    +0.000 A 
ATOM      9  C   UNL     1     -24.996   9.942  -6.626  0.00  0.00    +0.000 A 
ATOM     10  C   UNL     1     -24.220   9.106  -5.865  0.00  0.00    +0.000 A 
ATOM     11  C   UNL     1     -23.768   9.568  -4.640  0.00  0.00    +0.000 A 
ENDROOT
BRANCH   1  15
ATOM     12  C   UNL     1     -23.688   4.921   0.071  0.00  0.00    +0.000 A 
ATOM     13  C   UNL     1     -22.572   5.119  -0.704  0.00  0.00    +0.000 A 
ATOM     14  C   UNL     1     -22.451   6.283  -1.455  0.00  0.00    +0.000 A 
ATOM     15  C   UNL     1     -23.523   7.140  -1.668  0.00  0.00    +0.000 A 
ATOM     16  C   UNL     1     -24.691   6.830  -0.990  0.00  0.00    +0.000 A 
ATOM     17  C   UNL     1     -24.704   5.863   0.002  0.00  0.00    +0.000 A 
BRANCH  12  19
ATOM     18  C   UNL     1     -24.468   2.604  -0.282  0.00  0.00    +0.000 C 
ATOM     19  O   UNL     1     -24.068   3.661   0.549  0.00  0.00    +0.000 OA
ENDBRANCH  12  19
BRANCH  16  20
ATOM     20  O   UNL     1     -25.735   7.760  -1.008  0.00  0.00    +0.000 OA
ATOM     21  C   UNL     1     -25.524   8.918  -0.203  0.00  0.00    +0.000 C 
ENDBRANCH  16  20
BRANCH  17  22
ATOM     22  O   UNL     1     -25.864   5.693   0.756  0.00  0.00    +0.000 OA
ATOM     23  C   UNL     1     -25.859   6.052   2.116  0.00  0.00    +0.000 C 
ENDBRANCH  17  22
ENDBRANCH   1  15
BRANCH   8  24
ATOM     24  O   UNL     1     -26.622  11.706  -6.592  0.00  0.00    +0.000 OA
ATOM     25  C   UNL     1     -26.712  12.987  -7.189  0.00  0.00    +0.000 C 
ENDBRANCH   8  24
BRANCH   9  26
ATOM     26  O   UNL     1     -25.684   9.431  -7.727  0.00  0.00    +0.000 OA
ATOM     27  C   UNL     1     -25.866   8.056  -7.962  0.00  0.00    +0.000 C 
ENDBRANCH   9  26
TORSDOF 6
ENDMDL
MODEL 6
REMARK VINA RESULT:      -5.5     22.077     25.428
REMARK  Name = 
REMARK  6 active torsions:
REMARK  status: ('A' for Active; 'I' for Inactive)
REMARK    1  A    between atoms: O_2  and  C_3
REMARK    2  A    between atoms: C_6  and  C_7
REMARK    3  A    between atoms: C_14  and  O_15
REMARK    4  A    between atoms: C_17  and  O_18
REMARK    5  A    between atoms: C_22  and  O_23
REMARK    6  A    between atoms: C_25  and  O_26
REMARK                            x       y       z     vdW  Elec       q    Type
REMARK                         _______ _______ _______ _____ _____    ______ ____
ROOT
ATOM      1  C   UNL     1     -15.679 -10.273   4.159  0.00  0.00    +0.000 C 
ATOM      2  C   UNL     1     -15.760 -11.280   3.323  0.00  0.00    +0.000 C 
ATOM      3  C   UNL     1     -16.586 -11.310   2.120  0.00  0.00    +0.000 C 
ATOM      4  O   UNL     1     -16.901 -10.276   1.496  0.00  0.00    +0.000 OA
ATOM      5  N   UNL     1     -16.639 -12.683   1.739  0.00  0.00    +0.000 NA
ATOM      6  C   UNL     1     -16.061 -13.502   2.762  0.00  0.00    +0.000 A 
ATOM      7  C   UNL     1     -16.142 -14.855   3.066  0.00  0.00    +0.000 A 
ATOM      8  C   UNL     1     -15.507 -15.290   4.223  0.00  0.00    +0.000 A 
ATOM      9  C   UNL     1     -14.444 -14.518   4.671  0.00  0.00    +0.000 A 
ATOM     10  C   UNL     1     -14.319 -13.190   4.352  0.00  0.00    +0.000 A 
ATOM     11  C   UNL     1     -15.238 -12.639   3.474  0.00  0.00    +0.000 A 
ENDROOT
BRANCH   1  15
ATOM     12  C   UNL     1     -17.049  -6.480   5.066  0.00  0.00    +0.000 A 
ATOM     13  C   UNL     1     -15.935  -6.660   4.284  0.00  0.00    +0.000 A 
ATOM     14  C   UNL     1     -15.718  -7.884   3.662  0.00  0.00    +0.000 A 
ATOM     15  C   UNL     1     -16.435  -9.024   4.001  0.00  0.00    +0.000 A 
ATOM     16  C   UNL     1     -17.462  -8.843   4.915  0.00  0.00    +0.000 A 
ATOM     17  C   UNL     1     -17.878  -7.572   5.278  0.00  0.00    +0.000 A 
BRANCH  12  19
ATOM     18  C   UNL     1     -17.761  -4.213   5.738  0.00  0.00    +0.000 C 
ATOM     19  O   UNL     1     -17.159  -5.451   6.008  0.00  0.00    +0.000 OA
ENDBRANCH  12  19
BRANCH  16  20
ATOM     20  O   UNL     1     -18.341  -9.906   5.143  0.00  0.00    +0.000 OA
ATOM     21  C   UNL     1     -19.363 -10.065   4.162  0.00  0.00    +0.000 C 
ENDBRANCH  16  20
BRANCH  17  22
ATOM     22  O   UNL     1     -19.009  -7.442   6.082  0.00  0.00    +0.000 OA
ATOM     23  C   UNL     1     -18.913  -7.730   7.456  0.00  0.00    +0.000 C 
ENDBRANCH  17  22
ENDBRANCH   1  15
BRANCH   8  24
ATOM     24  O   UNL     1     -15.974 -16.339   4.991  0.00  0.00    +0.000 OA
ATOM     25  C   UNL     1     -15.844 -17.686   4.573  0.00  0.00    +0.000 C 
ENDBRANCH   8  24
BRANCH   9  26
ATOM     26  O   UNL     1     -13.715 -15.041   5.739  0.00  0.00    +0.000 OA
ATOM     27  C   UNL     1     -12.582 -14.415   6.291  0.00  0.00    +0.000 C 
ENDBRANCH   9  26
TORSDOF 6
ENDMDL
MODEL 7
REMARK VINA RESULT:      -5.5      3.114      7.960
REMARK  Name = 
REMARK  6 active torsions:
REMARK  status: ('A' for Active; 'I' for Inactive)
REMARK    1  A    between atoms: O_2  and  C_3
REMARK    2  A    between atoms: C_6  and  C_7
REMARK    3  A    between atoms: C_14  and  O_15
REMARK    4  A    between atoms: C_17  and  O_18
REMARK    5  A    between atoms: C_22  and  O_23
REMARK    6  A    between atoms: C_25  and  O_26
REMARK                            x       y       z     vdW  Elec       q    Type
REMARK                         _______ _______ _______ _____ _____    ______ ____
ROOT
ATOM      1  C   UNL     1     -31.219   7.752 -10.185  0.00  0.00    +0.000 C 
ATOM      2  C   UNL     1     -30.082   7.213 -10.553  0.00  0.00    +0.000 C 
ATOM      3  C   UNL     1     -29.847   5.783 -10.728  0.00  0.00    +0.000 C 
ATOM      4  O   UNL     1     -30.758   4.986 -11.033  0.00  0.00    +0.000 OA
ATOM      5  N   UNL     1     -28.430   5.642 -10.774  0.00  0.00    +0.000 NA
ATOM      6  C   UNL     1     -27.798   6.880 -10.428  0.00  0.00    +0.000 A 
ATOM      7  C   UNL     1     -26.519   7.219 -10.003  0.00  0.00    +0.000 A 
ATOM      8  C   UNL     1     -26.290   8.544  -9.659  0.00  0.00    +0.000 A 
ATOM      9  C   UNL     1     -27.122   9.488 -10.246  0.00  0.00    +0.000 A 
ATOM     10  C   UNL     1     -28.373   9.171 -10.711  0.00  0.00    +0.000 A 
ATOM     11  C   UNL     1     -28.767   7.844 -10.675  0.00  0.00    +0.000 A 
ENDROOT
BRANCH   1  15
ATOM     12  C   UNL     1     -35.129   7.023  -9.059  0.00  0.00    +0.000 A 
ATOM     13  C   UNL     1     -34.796   7.201 -10.380  0.00  0.00    +0.000 A 
ATOM     14  C   UNL     1     -33.476   7.043 -10.786  0.00  0.00    +0.000 A 
ATOM     15  C   UNL     1     -32.426   6.973  -9.879  0.00  0.00    +0.000 A 
ATOM     16  C   UNL     1     -32.784   6.949  -8.540  0.00  0.00    +0.000 A 
ATOM     17  C   UNL     1     -34.104   6.778  -8.157  0.00  0.00    +0.000 A 
BRANCH  12  19
ATOM     18  C   UNL     1     -37.526   7.599  -9.206  0.00  0.00    +0.000 C 
ATOM     19  O   UNL     1     -36.316   7.512  -8.502  0.00  0.00    +0.000 OA
ENDBRANCH  12  19
BRANCH  16  20
ATOM     20  O   UNL     1     -31.791   6.680  -7.593  0.00  0.00    +0.000 OA
ATOM     21  C   UNL     1     -31.375   7.802  -6.819  0.00  0.00    +0.000 C 
ENDBRANCH  16  20
BRANCH  17  22
ATOM     22  O   UNL     1     -34.393   6.611  -6.804  0.00  0.00    +0.000 OA
ATOM     23  C   UNL     1     -34.580   5.312  -6.296  0.00  0.00    +0.000 C 
ENDBRANCH  17  22
ENDBRANCH   1  15
BRANCH   8  24
ATOM     24  O   UNL     1     -25.394   8.925  -8.679  0.00  0.00    +0.000 OA
ATOM     25  C   UNL     1     -25.186   8.147  -7.514  0.00  0.00    +0.000 C 
ENDBRANCH   8  24
BRANCH   9  26
ATOM     26  O   UNL     1     -26.789  10.824 -10.019  0.00  0.00    +0.000 OA
ATOM     27  C   UNL     1     -27.452  11.906 -10.626  0.00  0.00    +0.000 C 
ENDBRANCH   9  26
TORSDOF 6
ENDMDL
MODEL 8
REMARK VINA RESULT:      -5.4     26.665     28.336
REMARK  Name = 
REMARK  6 active torsions:
REMARK  status: ('A' for Active; 'I' for Inactive)
REMARK    1  A    between atoms: O_2  and  C_3
REMARK    2  A    between atoms: C_6  and  C_7
REMARK    3  A    between atoms: C_14  and  O_15
REMARK    4  A    between atoms: C_17  and  O_18
REMARK    5  A    between atoms: C_22  and  O_23
REMARK    6  A    between atoms: C_25  and  O_26
REMARK                            x       y       z     vdW  Elec       q    Type
REMARK                         _______ _______ _______ _____ _____    ______ ____
ROOT
ATOM      1  C   UNL     1      -2.733  12.945   2.922  0.00  0.00    +0.000 C 
ATOM      2  C   UNL     1      -2.740  11.758   3.481  0.00  0.00    +0.000 C 
ATOM      3  C   UNL     1      -3.041  11.492   4.884  0.00  0.00    +0.000 C 
ATOM      4  O   UNL     1      -3.778  12.233   5.566  0.00  0.00    +0.000 OA
ATOM      5  N   UNL     1      -2.587  10.160   5.115  0.00  0.00    +0.000 NA
ATOM      6  C   UNL     1      -1.845   9.688   3.984  0.00  0.00    +0.000 A 
ATOM      7  C   UNL     1      -0.934   8.655   3.798  0.00  0.00    +0.000 A 
ATOM      8  C   UNL     1      -0.326   8.555   2.554  0.00  0.00    +0.000 A 
ATOM      9  C   UNL     1      -1.020   9.098   1.482  0.00  0.00    +0.000 A 
ATOM     10  C   UNL     1      -1.954  10.091   1.642  0.00  0.00    +0.000 A 
ATOM     11  C   UNL     1      -2.273  10.485   2.931  0.00  0.00    +0.000 A 
ENDROOT
BRANCH   1  15
ATOM     12  C   UNL     1      -3.256  17.000   3.530  0.00  0.00    +0.000 A 
ATOM     13  C   UNL     1      -4.317  16.193   3.200  0.00  0.00    +0.000 A 
ATOM     14  C   UNL     1      -4.225  14.819   3.390  0.00  0.00    +0.000 A 
ATOM     15  C   UNL     1      -3.016  14.188   3.652  0.00  0.00    +0.000 A 
ATOM     16  C   UNL     1      -1.923  15.023   3.831  0.00  0.00    +0.000 A 
ATOM     17  C   UNL     1      -2.087  16.392   3.963  0.00  0.00    +0.000 A 
BRANCH  12  19
ATOM     18  C   UNL     1      -4.023  19.336   3.300  0.00  0.00    +0.000 C 
ATOM     19  O   UNL     1      -3.111  18.303   3.041  0.00  0.00    +0.000 OA
ENDBRANCH  12  19
BRANCH  16  20
ATOM     20  O   UNL     1      -0.728  14.462   4.292  0.00  0.00    +0.000 OA
ATOM     21  C   UNL     1      -0.708  14.144   5.682  0.00  0.00    +0.000 C 
ENDBRANCH  16  20
BRANCH  17  22
ATOM     22  O   UNL     1      -0.977  17.171   4.290  0.00  0.00    +0.000 OA
ATOM     23  C   UNL     1      -0.927  17.802   5.546  0.00  0.00    +0.000 C 
ENDBRANCH  17  22
ENDBRANCH   1  15
BRANCH   8  24
ATOM     24  O   UNL     1       0.960   8.083   2.379  0.00  0.00    +0.000 OA
ATOM     25  C   UNL     1       1.972   8.294   3.347  0.00  0.00    +0.000 C 
ENDBRANCH   8  24
BRANCH   9  26
ATOM     26  O   UNL     1      -0.480   8.859   0.218  0.00  0.00    +0.000 OA
ATOM     27  C   UNL     1      -1.200   8.270  -0.839  0.00  0.00    +0.000 C 
ENDBRANCH   9  26
TORSDOF 6
ENDMDL
MODEL 9
REMARK VINA RESULT:      -5.3     18.385     20.008
REMARK  Name = 
REMARK  6 active torsions:
REMARK  status: ('A' for Active; 'I' for Inactive)
REMARK    1  A    between atoms: O_2  and  C_3
REMARK    2  A    between atoms: C_6  and  C_7
REMARK    3  A    between atoms: C_14  and  O_15
REMARK    4  A    between atoms: C_17  and  O_18
REMARK    5  A    between atoms: C_22  and  O_23
REMARK    6  A    between atoms: C_25  and  O_26
REMARK                            x       y       z     vdW  Elec       q    Type
REMARK                         _______ _______ _______ _____ _____    ______ ____
ROOT
ATOM      1  C   UNL     1     -32.497  -0.242 -23.689  0.00  0.00    +0.000 C 
ATOM      2  C   UNL     1     -31.994  -0.963 -24.662  0.00  0.00    +0.000 C 
ATOM      3  C   UNL     1     -32.715  -1.989 -25.408  0.00  0.00    +0.000 C 
ATOM      4  O   UNL     1     -33.954  -1.961 -25.562  0.00  0.00    +0.000 OA
ATOM      5  N   UNL     1     -31.707  -2.732 -26.088  0.00  0.00    +0.000 NA
ATOM      6  C   UNL     1     -30.409  -2.339 -25.628  0.00  0.00    +0.000 A 
ATOM      7  C   UNL     1     -29.152  -2.928 -25.688  0.00  0.00    +0.000 A 
ATOM      8  C   UNL     1     -28.112  -2.283 -25.030  0.00  0.00    +0.000 A 
ATOM      9  C   UNL     1     -28.253  -0.915 -24.844  0.00  0.00    +0.000 A 
ATOM     10  C   UNL     1     -29.480  -0.303 -24.822  0.00  0.00    +0.000 A 
ATOM     11  C   UNL     1     -30.599  -1.072 -25.092  0.00  0.00    +0.000 A 
ENDROOT
BRANCH   1  15
ATOM     12  C   UNL     1     -35.885   0.587 -21.470  0.00  0.00    +0.000 A 
ATOM     13  C   UNL     1     -35.696   1.152 -22.708  0.00  0.00    +0.000 A 
ATOM     14  C   UNL     1     -34.794   0.579 -23.597  0.00  0.00    +0.000 A 
ATOM     15  C   UNL     1     -33.876  -0.385 -23.201  0.00  0.00    +0.000 A 
ATOM     16  C   UNL     1     -33.991  -0.829 -21.893  0.00  0.00    +0.000 A 
ATOM     17  C   UNL     1     -35.090  -0.494 -21.120  0.00  0.00    +0.000 A 
BRANCH  12  19
ATOM     18  C   UNL     1     -37.848   1.344 -20.175  0.00  0.00    +0.000 C 
ATOM     19  O   UNL     1     -36.465   1.279 -20.400  0.00  0.00    +0.000 OA
ENDBRANCH  12  19
BRANCH  16  20
ATOM     20  O   UNL     1     -33.229  -1.934 -21.499  0.00  0.00    +0.000 OA
ATOM     21  C   UNL     1     -33.639  -3.179 -22.060  0.00  0.00    +0.000 C 
ENDBRANCH  16  20
BRANCH  17  22
ATOM     22  O   UNL     1     -35.233  -1.086 -19.866  0.00  0.00    +0.000 OA
ATOM     23  C   UNL     1     -36.230  -2.060 -19.675  0.00  0.00    +0.000 C 
ENDBRANCH  17  22
ENDBRANCH   1  15
BRANCH   8  24
ATOM     24  O   UNL     1     -27.055  -2.956 -24.449  0.00  0.00    +0.000 OA
ATOM     25  C   UNL     1     -27.125  -4.337 -24.144  0.00  0.00    +0.000 C 
ENDBRANCH   8  24
BRANCH   9  26
ATOM     26  O   UNL     1     -27.142  -0.251 -24.324  0.00  0.00    +0.000 OA
ATOM     27  C   UNL     1     -25.891  -0.203 -24.967  0.00  0.00    +0.000 C 
ENDBRANCH   9  26
TORSDOF 6
ENDMDL
MODEL 10
REMARK VINA RESULT:      -5.3     25.812     27.805
REMARK  Name = 
REMARK  6 active torsions:
REMARK  status: ('A' for Active; 'I' for Inactive)
REMARK    1  A    between atoms: O_2  and  C_3
REMARK    2  A    between atoms: C_6  and  C_7
REMARK    3  A    between atoms: C_14  and  O_15
REMARK    4  A    between atoms: C_17  and  O_18
REMARK    5  A    between atoms: C_22  and  O_23
REMARK    6  A    between atoms: C_25  and  O_26
REMARK                            x       y       z     vdW  Elec       q    Type
REMARK                         _______ _______ _______ _____ _____    ______ ____
ROOT
ATOM      1  C   UNL     1      -0.341   5.427  -9.662  0.00  0.00    +0.000 C 
ATOM      2  C   UNL     1      -1.007   4.302  -9.563  0.00  0.00    +0.000 C 
ATOM      3  C   UNL     1      -1.785   3.885  -8.401  0.00  0.00    +0.000 C 
ATOM      4  O   UNL     1      -2.306   4.702  -7.614  0.00  0.00    +0.000 OA
ATOM      5  N   UNL     1      -2.021   2.492  -8.591  0.00  0.00    +0.000 NA
ATOM      6  C   UNL     1      -1.252   2.008  -9.699  0.00  0.00    +0.000 A 
ATOM      7  C   UNL     1      -0.848   0.742 -10.105  0.00  0.00    +0.000 A 
ATOM      8  C   UNL     1      -0.005   0.663 -11.206  0.00  0.00    +0.000 A 
ATOM      9  C   UNL     1      -0.063   1.718 -12.106  0.00  0.00    +0.000 A 
ATOM     10  C   UNL     1      -0.496   2.968 -11.740  0.00  0.00    +0.000 A 
ATOM     11  C   UNL     1      -0.980   3.141 -10.454  0.00  0.00    +0.000 A 
ENDROOT
BRANCH   1  15
ATOM     12  C   UNL     1       0.669   8.964  -7.776  0.00  0.00    +0.000 A 
ATOM     13  C   UNL     1      -0.507   8.848  -8.475  0.00  0.00    +0.000 A 
ATOM     14  C   UNL     1      -1.023   7.587  -8.754  0.00  0.00    +0.000 A 
ATOM     15  C   UNL     1      -0.274   6.429  -8.589  0.00  0.00    +0.000 A 
ATOM     16  C   UNL     1       0.978   6.593  -8.019  0.00  0.00    +0.000 A 
ATOM     17  C   UNL     1       1.350   7.800  -7.449  0.00  0.00    +0.000 A 
BRANCH  12  19
ATOM     18  C   UNL     1       1.303  11.154  -8.725  0.00  0.00    +0.000 C 
ATOM     19  O   UNL     1       1.441  10.132  -7.775  0.00  0.00    +0.000 OA
ENDBRANCH  12  19
BRANCH  16  20
ATOM     20  O   UNL     1       1.692   5.450  -7.647  0.00  0.00    +0.000 OA
ATOM     21  C   UNL     1       1.197   4.779  -6.491  0.00  0.00    +0.000 C 
ENDBRANCH  16  20
BRANCH  17  22
ATOM     22  O   UNL     1       2.558   7.871  -6.758  0.00  0.00    +0.000 OA
ATOM     23  C   UNL     1       2.541   8.015  -5.358  0.00  0.00    +0.000 C 
ENDBRANCH  17  22
ENDBRANCH   1  15
BRANCH   8  24
ATOM     24  O   UNL     1       0.954  -0.321 -11.353  0.00  0.00    +0.000 OA
ATOM     25  C   UNL     1       0.607  -1.671 -11.602  0.00  0.00    +0.000 C 
ENDBRANCH   8  24
BRANCH   9  26
ATOM     26  O   UNL     1       0.669   1.560 -13.283  0.00  0.00    +0.000 OA
ATOM     27  C   UNL     1       0.791   2.560 -14.265  0.00  0.00    +0.000 C 
ENDBRANCH   9  26
TORSDOF 6
ENDMDL
