MODEL 1
REMARK VINA RESULT:      -7.0      0.000      0.000
REMARK  Name = 
REMARK  4 active torsions:
REMARK  status: ('A' for Active; 'I' for Inactive)
REMARK    1  A    between atoms: O_2  and  C_3
REMARK    2  A    between atoms: C_8  and  C_9
REMARK    3  A    between atoms: C_16  and  O_17
REMARK    4  A    between atoms: C_19  and  O_20
REMARK                            x       y       z     vdW  Elec       q    Type
REMARK                         _______ _______ _______ _____ _____    ______ ____
ROOT
ATOM      1  C   UNL     1     -18.264  -3.432   6.936  0.00  0.00    +0.000 C 
ATOM      2  C   UNL     1     -18.686  -3.817   8.141  0.00  0.00    +0.000 C 
ATOM      3  C   UNL     1     -19.086  -2.914   9.219  0.00  0.00    +0.000 C 
ATOM      4  O   UNL     1     -18.456  -1.856   9.524  0.00  0.00    +0.000 OA
ATOM      5  N   UNL     1     -19.999  -3.666  10.024  0.00  0.00    +0.000 NA
ATOM      6  C   UNL     1     -20.296  -4.912   9.396  0.00  0.00    +0.000 A 
ATOM      7  C   UNL     1     -21.236  -5.913   9.608  0.00  0.00    +0.000 A 
ATOM      8  C   UNL     1     -21.043  -7.106   8.922  0.00  0.00    +0.000 A 
ATOM      9  C   UNL     1     -19.775  -7.426   8.451  0.00  0.00    +0.000 A 
ATOM     10  C   UNL     1     -18.964  -6.388   8.006  0.00  0.00    +0.000 A 
ATOM     11  C   UNL     1     -19.252  -5.123   8.503  0.00  0.00    +0.000 A 
ENDROOT
BRANCH   1  17
ATOM     12  C   UNL     1     -18.924  -1.115   6.333  0.00  0.00    +0.000 A 
ATOM     13  C   UNL     1     -18.557   0.226   6.315  0.00  0.00    +0.000 A 
ATOM     14  C   UNL     1     -17.208   0.535   6.247  0.00  0.00    +0.000 A 
ATOM     15  C   UNL     1     -16.286  -0.466   5.962  0.00  0.00    +0.000 A 
ATOM     16  C   UNL     1     -16.676  -1.772   6.223  0.00  0.00    +0.000 A 
ATOM     17  C   UNL     1     -17.945  -2.013   6.738  0.00  0.00    +0.000 A 
ATOM     18  O   UNL     1     -15.211   0.132   5.320  0.00  0.00    +0.000 OA
ATOM     19  C   UNL     1     -15.205   1.480   5.759  0.00  0.00    +0.000 C 
ATOM     20  O   UNL     1     -16.456   1.705   6.384  0.00  0.00    +0.000 OA
BRANCH  12  22
ATOM     21  C   UNL     1     -21.232  -0.683   6.827  0.00  0.00    +0.000 C 
ATOM     22  O   UNL     1     -20.260  -1.517   6.227  0.00  0.00    +0.000 OA
ENDBRANCH  12  22
ENDBRANCH   1  17
BRANCH   8  23
ATOM     23  O   UNL     1     -22.046  -8.045   8.748  0.00  0.00    +0.000 OA
ATOM     24  C   UNL     1     -23.054  -8.297   9.690  0.00  0.00    +0.000 C 
ENDBRANCH   8  23
BRANCH   9  25
ATOM     25  O   UNL     1     -19.315  -8.744   8.520  0.00  0.00    +0.000 OA
ATOM     26  C   UNL     1     -18.207  -9.108   9.338  0.00  0.00    +0.000 C 
ENDBRANCH   9  25
TORSDOF 4
ENDMDL
MODEL 2
REMARK VINA RESULT:      -6.3     19.174     21.832
REMARK  Name = 
REMARK  4 active torsions:
REMARK  status: ('A' for Active; 'I' for Inactive)
REMARK    1  A    between atoms: O_2  and  C_3
REMARK    2  A    between atoms: C_8  and  C_9
REMARK    3  A    between atoms: C_16  and  O_17
REMARK    4  A    between atoms: C_19  and  O_20
REMARK                            x       y       z     vdW  Elec       q    Type
REMARK                         _______ _______ _______ _____ _____    ______ ____
ROOT
ATOM      1  C   UNL     1     -34.936  -3.714  -4.051  0.00  0.00    +0.000 C 
ATOM      2  C   UNL     1     -35.186  -3.396  -5.321  0.00  0.00    +0.000 C 
ATOM      3  C   UNL     1     -34.847  -4.224  -6.478  0.00  0.00    +0.000 C 
ATOM      4  O   UNL     1     -33.743  -4.836  -6.607  0.00  0.00    +0.000 OA
ATOM      5  N   UNL     1     -35.781  -3.855  -7.496  0.00  0.00    +0.000 NA
ATOM      6  C   UNL     1     -36.766  -2.972  -6.961  0.00  0.00    +0.000 A 
ATOM      7  C   UNL     1     -37.983  -2.477  -7.414  0.00  0.00    +0.000 A 
ATOM      8  C   UNL     1     -38.540  -1.429  -6.689  0.00  0.00    +0.000 A 
ATOM      9  C   UNL     1     -37.723  -0.647  -5.882  0.00  0.00    +0.000 A 
ATOM     10  C   UNL     1     -36.655  -1.265  -5.240  0.00  0.00    +0.000 A 
ATOM     11  C   UNL     1     -36.190  -2.443  -5.812  0.00  0.00    +0.000 A 
ENDROOT
BRANCH   1  17
ATOM     12  C   UNL     1     -34.571  -6.089  -3.416  0.00  0.00    +0.000 A 
ATOM     13  C   UNL     1     -33.663  -7.137  -3.332  0.00  0.00    +0.000 A 
ATOM     14  C   UNL     1     -32.321  -6.831  -3.169  0.00  0.00    +0.000 A 
ATOM     15  C   UNL     1     -31.945  -5.530  -2.859  0.00  0.00    +0.000 A 
ATOM     16  C   UNL     1     -32.842  -4.522  -3.187  0.00  0.00    +0.000 A 
ATOM     17  C   UNL     1     -34.050  -4.855  -3.787  0.00  0.00    +0.000 A 
ATOM     18  O   UNL     1     -30.765  -5.601  -2.132  0.00  0.00    +0.000 OA
ATOM     19  C   UNL     1     -30.147  -6.814  -2.527  0.00  0.00    +0.000 C 
ATOM     20  O   UNL     1     -31.130  -7.560  -3.221  0.00  0.00    +0.000 OA
BRANCH  12  22
ATOM     21  C   UNL     1     -36.395  -7.638  -3.242  0.00  0.00    +0.000 C 
ATOM     22  O   UNL     1     -35.953  -6.304  -3.407  0.00  0.00    +0.000 OA
ENDBRANCH  12  22
ENDBRANCH   1  17
BRANCH   8  23
ATOM     23  O   UNL     1     -39.874  -1.070  -6.789  0.00  0.00    +0.000 OA
ATOM     24  C   UNL     1     -40.463  -0.566  -7.957  0.00  0.00    +0.000 C 
ENDBRANCH   8  23
BRANCH   9  25
ATOM     25  O   UNL     1     -37.930   0.733  -5.806  0.00  0.00    +0.000 OA
ATOM     26  C   UNL     1     -37.434   1.620  -6.806  0.00  0.00    +0.000 C 
ENDBRANCH   9  25
TORSDOF 4
ENDMDL
MODEL 3
REMARK VINA RESULT:      -6.2     23.009     25.415
REMARK  Name = 
REMARK  4 active torsions:
REMARK  status: ('A' for Active; 'I' for Inactive)
REMARK    1  A    between atoms: O_2  and  C_3
REMARK    2  A    between atoms: C_8  and  C_9
REMARK    3  A    between atoms: C_16  and  O_17
REMARK    4  A    between atoms: C_19  and  O_20
REMARK                            x       y       z     vdW  Elec       q    Type
REMARK                         _______ _______ _______ _____ _____    ______ ____
ROOT
ATOM      1  C   UNL     1      -0.678   4.454  -5.958  0.00  0.00    +0.000 C 
ATOM      2  C   UNL     1       0.467   4.773  -5.354  0.00  0.00    +0.000 C 
ATOM      3  C   UNL     1       1.681   5.218  -6.037  0.00  0.00    +0.000 C 
ATOM      4  O   UNL     1       2.122   4.693  -7.105  0.00  0.00    +0.000 OA
ATOM      5  N   UNL     1       2.392   6.001  -5.075  0.00  0.00    +0.000 NA
ATOM      6  C   UNL     1       1.592   6.190  -3.908  0.00  0.00    +0.000 A 
ATOM      7  C   UNL     1       1.679   7.003  -2.785  0.00  0.00    +0.000 A 
ATOM      8  C   UNL     1       0.816   6.713  -1.735  0.00  0.00    +0.000 A 
ATOM      9  C   UNL     1       0.263   5.442  -1.637  0.00  0.00    +0.000 A 
ATOM     10  C   UNL     1      -0.047   4.772  -2.816  0.00  0.00    +0.000 A 
ATOM     11  C   UNL     1       0.645   5.173  -3.953  0.00  0.00    +0.000 A 
ENDROOT
BRANCH   1  17
ATOM     12  C   UNL     1      -1.068   5.349  -8.243  0.00  0.00    +0.000 A 
ATOM     13  C   UNL     1      -0.886   5.157  -9.607  0.00  0.00    +0.000 A 
ATOM     14  C   UNL     1      -0.771   3.858 -10.077  0.00  0.00    +0.000 A 
ATOM     15  C   UNL     1      -1.072   2.793  -9.236  0.00  0.00    +0.000 A 
ATOM     16  C   UNL     1      -1.013   3.035  -7.871  0.00  0.00    +0.000 A 
ATOM     17  C   UNL     1      -0.670   4.303  -7.418  0.00  0.00    +0.000 A 
ATOM     18  O   UNL     1      -1.518   1.749 -10.034  0.00  0.00    +0.000 OA
ATOM     19  C   UNL     1      -0.923   1.957 -11.303  0.00  0.00    +0.000 C 
ATOM     20  O   UNL     1      -0.414   3.280 -11.297  0.00  0.00    +0.000 OA
BRANCH  12  22
ATOM     21  C   UNL     1      -0.731   7.724  -8.297  0.00  0.00    +0.000 C 
ATOM     22  O   UNL     1      -1.364   6.606  -7.705  0.00  0.00    +0.000 OA
ENDBRANCH  12  22
ENDBRANCH   1  17
BRANCH   8  23
ATOM     23  O   UNL     1       0.533   7.614  -0.722  0.00  0.00    +0.000 OA
ATOM     24  C   UNL     1      -0.698   8.271  -0.581  0.00  0.00    +0.000 C 
ENDBRANCH   8  23
BRANCH   9  25
ATOM     25  O   UNL     1       0.116   4.837  -0.386  0.00  0.00    +0.000 OA
ATOM     26  C   UNL     1       0.954   3.760   0.027  0.00  0.00    +0.000 C 
ENDBRANCH   9  25
TORSDOF 4
ENDMDL
MODEL 4
REMARK VINA RESULT:      -6.1     16.453     19.853
REMARK  Name = 
REMARK  4 active torsions:
REMARK  status: ('A' for Active; 'I' for Inactive)
REMARK    1  A    between atoms: O_2  and  C_3
REMARK    2  A    between atoms: C_8  and  C_9
REMARK    3  A    between atoms: C_16  and  O_17
REMARK    4  A    between atoms: C_19  and  O_20
REMARK                            x       y       z     vdW  Elec       q    Type
REMARK                         _______ _______ _______ _____ _____    ______ ____
ROOT
ATOM      1  C   UNL     1     -24.329   7.937  -5.296  0.00  0.00    +0.000 C 
ATOM      2  C   UNL     1     -25.588   8.208  -5.638  0.00  0.00    +0.000 C 
ATOM      3  C   UNL     1     -26.613   8.722  -4.731  0.00  0.00    +0.000 C 
ATOM      4  O   UNL     1     -26.783   8.301  -3.546  0.00  0.00    +0.000 OA
ATOM      5  N   UNL     1     -27.542   9.420  -5.566  0.00  0.00    +0.000 NA
ATOM      6  C   UNL     1     -27.042   9.495  -6.900  0.00  0.00    +0.000 A 
ATOM      7  C   UNL     1     -27.403  10.202  -8.040  0.00  0.00    +0.000 A 
ATOM      8  C   UNL     1     -26.808   9.811  -9.233  0.00  0.00    +0.000 A 
ATOM      9  C   UNL     1     -26.275   8.532  -9.343  0.00  0.00    +0.000 A 
ATOM     10  C   UNL     1     -25.688   7.971  -8.214  0.00  0.00    +0.000 A 
ATOM     11  C   UNL     1     -26.097   8.479  -6.988  0.00  0.00    +0.000 A 
ENDROOT
BRANCH   1  17
ATOM     12  C   UNL     1     -23.231   8.939  -3.305  0.00  0.00    +0.000 A 
ATOM     13  C   UNL     1     -23.090   8.907  -1.923  0.00  0.00    +0.000 A 
ATOM     14  C   UNL     1     -23.291   7.701  -1.270  0.00  0.00    +0.000 A 
ATOM     15  C   UNL     1     -23.391   6.528  -2.009  0.00  0.00    +0.000 A 
ATOM     16  C   UNL     1     -23.755   6.654  -3.342  0.00  0.00    +0.000 A 
ATOM     17  C   UNL     1     -23.990   7.920  -3.867  0.00  0.00    +0.000 A 
ATOM     18  O   UNL     1     -22.934   5.493  -1.207  0.00  0.00    +0.000 OA
ATOM     19  C   UNL     1     -23.145   5.922   0.128  0.00  0.00    +0.000 C 
ATOM     20  O   UNL     1     -23.416   7.311   0.066  0.00  0.00    +0.000 OA
BRANCH  12  22
ATOM     21  C   UNL     1     -22.402  11.190  -3.348  0.00  0.00    +0.000 C 
ATOM     22  O   UNL     1     -22.880  10.064  -4.059  0.00  0.00    +0.000 OA
ENDBRANCH  12  22
ENDBRANCH   1  17
BRANCH   8  23
ATOM     23  O   UNL     1     -26.785  10.613 -10.362  0.00  0.00    +0.000 OA
ATOM     24  C   UNL     1     -27.904  11.296 -10.859  0.00  0.00    +0.000 C 
ENDBRANCH   8  23
BRANCH   9  25
ATOM     25  O   UNL     1     -26.420   7.814 -10.533  0.00  0.00    +0.000 OA
ATOM     26  C   UNL     1     -26.984   6.505 -10.554  0.00  0.00    +0.000 C 
ENDBRANCH   9  25
TORSDOF 4
ENDMDL
MODEL 5
REMARK VINA RESULT:      -6.1      3.029      4.298
REMARK  Name = 
REMARK  4 active torsions:
REMARK  status: ('A' for Active; 'I' for Inactive)
REMARK    1  A    between atoms: O_2  and  C_3
REMARK    2  A    between atoms: C_8  and  C_9
REMARK    3  A    between atoms: C_16  and  O_17
REMARK    4  A    between atoms: C_19  and  O_20
REMARK                            x       y       z     vdW  Elec       q    Type
REMARK                         _______ _______ _______ _____ _____    ______ ____
ROOT
ATOM      1  C   UNL     1     -20.325  -3.121   8.440  0.00  0.00    +0.000 C 
ATOM      2  C   UNL     1     -21.586  -2.787   8.165  0.00  0.00    +0.000 C 
ATOM      3  C   UNL     1     -22.019  -2.040   6.985  0.00  0.00    +0.000 C 
ATOM      4  O   UNL     1     -21.409  -1.026   6.528  0.00  0.00    +0.000 OA
ATOM      5  N   UNL     1     -23.380  -2.428   6.770  0.00  0.00    +0.000 NA
ATOM      6  C   UNL     1     -23.733  -3.490   7.654  0.00  0.00    +0.000 A 
ATOM      7  C   UNL     1     -24.808  -4.366   7.749  0.00  0.00    +0.000 A 
ATOM      8  C   UNL     1     -24.905  -5.112   8.917  0.00  0.00    +0.000 A 
ATOM      9  C   UNL     1     -24.260  -4.669  10.066  0.00  0.00    +0.000 A 
ATOM     10  C   UNL     1     -23.041  -4.015   9.919  0.00  0.00    +0.000 A 
ATOM     11  C   UNL     1     -22.802  -3.426   8.684  0.00  0.00    +0.000 A 
ENDROOT
BRANCH   1  17
ATOM     12  C   UNL     1     -18.291  -3.286   7.022  0.00  0.00    +0.000 A 
ATOM     13  C   UNL     1     -17.415  -2.620   6.174  0.00  0.00    +0.000 A 
ATOM     14  C   UNL     1     -17.254  -1.253   6.339  0.00  0.00    +0.000 A 
ATOM     15  C   UNL     1     -17.771  -0.632   7.469  0.00  0.00    +0.000 A 
ATOM     16  C   UNL     1     -18.805  -1.283   8.128  0.00  0.00    +0.000 A 
ATOM     17  C   UNL     1     -19.258  -2.504   7.642  0.00  0.00    +0.000 A 
ATOM     18  O   UNL     1     -16.973   0.472   7.737  0.00  0.00    +0.000 OA
ATOM     19  C   UNL     1     -16.407   0.844   6.492  0.00  0.00    +0.000 C 
ATOM     20  O   UNL     1     -16.634  -0.238   5.606  0.00  0.00    +0.000 OA
BRANCH  12  22
ATOM     21  C   UNL     1     -17.838  -5.378   5.938  0.00  0.00    +0.000 C 
ATOM     22  O   UNL     1     -18.385  -4.682   7.042  0.00  0.00    +0.000 OA
ENDBRANCH  12  22
ENDBRANCH   1  17
BRANCH   8  23
ATOM     23  O   UNL     1     -25.685  -6.252   9.020  0.00  0.00    +0.000 OA
ATOM     24  C   UNL     1     -26.943  -6.396   8.416  0.00  0.00    +0.000 C 
ENDBRANCH   8  23
BRANCH   9  25
ATOM     25  O   UNL     1     -24.880  -4.802  11.311  0.00  0.00    +0.000 OA
ATOM     26  C   UNL     1     -25.969  -3.968  11.699  0.00  0.00    +0.000 C 
ENDBRANCH   9  25
TORSDOF 4
ENDMDL
MODEL 6
REMARK VINA RESULT:      -6.0      5.233      9.046
REMARK  Name = 
REMARK  4 active torsions:
REMARK  status: ('A' for Active; 'I' for Inactive)
REMARK    1  A    between atoms: O_2  and  C_3
REMARK    2  A    between atoms: C_8  and  C_9
REMARK    3  A    between atoms: C_16  and  O_17
REMARK    4  A    between atoms: C_19  and  O_20
REMARK                            x       y       z     vdW  Elec       q    Type
REMARK                         _______ _______ _______ _____ _____    ______ ____
ROOT
ATOM      1  C   UNL     1     -25.211  -3.454   7.000  0.00  0.00    +0.000 C 
ATOM      2  C   UNL     1     -24.455  -3.461   8.099  0.00  0.00    +0.000 C 
ATOM      3  C   UNL     1     -24.740  -4.231   9.309  0.00  0.00    +0.000 C 
ATOM      4  O   UNL     1     -25.894  -4.334   9.824  0.00  0.00    +0.000 OA
ATOM      5  N   UNL     1     -23.469  -4.442   9.931  0.00  0.00    +0.000 NA
ATOM      6  C   UNL     1     -22.422  -3.986   9.076  0.00  0.00    +0.000 A 
ATOM      7  C   UNL     1     -21.039  -4.120   9.068  0.00  0.00    +0.000 A 
ATOM      8  C   UNL     1     -20.337  -3.310   8.183  0.00  0.00    +0.000 A 
ATOM      9  C   UNL     1     -20.931  -2.147   7.706  0.00  0.00    +0.000 A 
ATOM     10  C   UNL     1     -22.304  -2.157   7.486  0.00  0.00    +0.000 A 
ATOM     11  C   UNL     1     -23.035  -3.101   8.196  0.00  0.00    +0.000 A 
ENDROOT
BRANCH   1  17
ATOM     12  C   UNL     1     -26.757  -5.363   6.629  0.00  0.00    +0.000 A 
ATOM     13  C   UNL     1     -28.016  -5.897   6.878  0.00  0.00    +0.000 A 
ATOM     14  C   UNL     1     -29.065  -5.023   7.112  0.00  0.00    +0.000 A 
ATOM     15  C   UNL     1     -28.898  -3.666   6.863  0.00  0.00    +0.000 A 
ATOM     16  C   UNL     1     -27.597  -3.184   6.852  0.00  0.00    +0.000 A 
ATOM     17  C   UNL     1     -26.544  -4.064   7.076  0.00  0.00    +0.000 A 
ATOM     18  O   UNL     1     -30.143  -3.149   6.531  0.00  0.00    +0.000 OA
ATOM     19  C   UNL     1     -31.089  -4.000   7.156  0.00  0.00    +0.000 C 
ATOM     20  O   UNL     1     -30.382  -5.160   7.559  0.00  0.00    +0.000 OA
BRANCH  12  22
ATOM     21  C   UNL     1     -25.275  -7.192   7.089  0.00  0.00    +0.000 C 
ATOM     22  O   UNL     1     -25.684  -6.158   6.215  0.00  0.00    +0.000 OA
ENDBRANCH  12  22
ENDBRANCH   1  17
BRANCH   8  23
ATOM     23  O   UNL     1     -19.029  -3.563   7.805  0.00  0.00    +0.000 OA
ATOM     24  C   UNL     1     -18.079  -4.173   8.637  0.00  0.00    +0.000 C 
ENDBRANCH   8  23
BRANCH   9  25
ATOM     25  O   UNL     1     -20.167  -0.987   7.548  0.00  0.00    +0.000 OA
ATOM     26  C   UNL     1     -19.631  -0.286   8.667  0.00  0.00    +0.000 C 
ENDBRANCH   9  25
TORSDOF 4
ENDMDL
MODEL 7
REMARK VINA RESULT:      -6.0     20.504     22.244
REMARK  Name = 
REMARK  4 active torsions:
REMARK  status: ('A' for Active; 'I' for Inactive)
REMARK    1  A    between atoms: O_2  and  C_3
REMARK    2  A    between atoms: C_8  and  C_9
REMARK    3  A    between atoms: C_16  and  O_17
REMARK    4  A    between atoms: C_19  and  O_20
REMARK                            x       y       z     vdW  Elec       q    Type
REMARK                         _______ _______ _______ _____ _____    ______ ____
ROOT
ATOM      1  C   UNL     1     -34.361  -4.701  -7.593  0.00  0.00    +0.000 C 
ATOM      2  C   UNL     1     -35.077  -5.723  -7.123  0.00  0.00    +0.000 C 
ATOM      3  C   UNL     1     -34.954  -6.287  -5.779  0.00  0.00    +0.000 C 
ATOM      4  O   UNL     1     -33.844  -6.498  -5.202  0.00  0.00    +0.000 OA
ATOM      5  N   UNL     1     -36.227  -6.876  -5.498  0.00  0.00    +0.000 NA
ATOM      6  C   UNL     1     -37.157  -6.551  -6.530  0.00  0.00    +0.000 A 
ATOM      7  C   UNL     1     -38.533  -6.670  -6.677  0.00  0.00    +0.000 A 
ATOM      8  C   UNL     1     -39.046  -6.460  -7.952  0.00  0.00    +0.000 A 
ATOM      9  C   UNL     1     -38.210  -6.592  -9.054  0.00  0.00    +0.000 A 
ATOM     10  C   UNL     1     -36.881  -6.208  -8.916  0.00  0.00    +0.000 A 
ATOM     11  C   UNL     1     -36.373  -6.197  -7.623  0.00  0.00    +0.000 A 
ENDROOT
BRANCH   1  17
ATOM     12  C   UNL     1     -33.270  -3.092  -6.046  0.00  0.00    +0.000 A 
ATOM     13  C   UNL     1     -32.174  -2.833  -5.231  0.00  0.00    +0.000 A 
ATOM     14  C   UNL     1     -30.966  -3.433  -5.545  0.00  0.00    +0.000 A 
ATOM     15  C   UNL     1     -30.813  -4.073  -6.770  0.00  0.00    +0.000 A 
ATOM     16  C   UNL     1     -31.972  -4.492  -7.408  0.00  0.00    +0.000 A 
ATOM     17  C   UNL     1     -33.204  -4.251  -6.811  0.00  0.00    +0.000 A 
ATOM     18  O   UNL     1     -29.472  -3.989  -7.117  0.00  0.00    +0.000 OA
ATOM     19  C   UNL     1     -28.768  -3.870  -5.892  0.00  0.00    +0.000 C 
ATOM     20  O   UNL     1     -29.733  -3.564  -4.901  0.00  0.00    +0.000 OA
BRANCH  12  22
ATOM     21  C   UNL     1     -35.241  -2.666  -4.747  0.00  0.00    +0.000 C 
ATOM     22  O   UNL     1     -34.477  -2.399  -5.907  0.00  0.00    +0.000 OA
ENDBRANCH  12  22
ENDBRANCH   1  17
BRANCH   8  23
ATOM     23  O   UNL     1     -40.384  -6.195  -8.191  0.00  0.00    +0.000 OA
ATOM     24  C   UNL     1     -40.883  -4.929  -8.530  0.00  0.00    +0.000 C 
ENDBRANCH   8  23
BRANCH   9  25
ATOM     25  O   UNL     1     -38.688  -7.184 -10.227  0.00  0.00    +0.000 OA
ATOM     26  C   UNL     1     -38.701  -6.482 -11.468  0.00  0.00    +0.000 C 
ENDBRANCH   9  25
TORSDOF 4
ENDMDL
MODEL 8
REMARK VINA RESULT:      -6.0     20.495     22.808
REMARK  Name = 
REMARK  4 active torsions:
REMARK  status: ('A' for Active; 'I' for Inactive)
REMARK    1  A    between atoms: O_2  and  C_3
REMARK    2  A    between atoms: C_8  and  C_9
REMARK    3  A    between atoms: C_16  and  O_17
REMARK    4  A    between atoms: C_19  and  O_20
REMARK                            x       y       z     vdW  Elec       q    Type
REMARK                         _______ _______ _______ _____ _____    ______ ____
ROOT
ATOM      1  C   UNL     1     -35.766  -3.773  -7.448  0.00  0.00    +0.000 C 
ATOM      2  C   UNL     1     -35.392  -3.253  -6.279  0.00  0.00    +0.000 C 
ATOM      3  C   UNL     1     -36.304  -2.850  -5.209  0.00  0.00    +0.000 C 
ATOM      4  O   UNL     1     -37.387  -2.219  -5.405  0.00  0.00    +0.000 OA
ATOM      5  N   UNL     1     -35.539  -2.947  -4.004  0.00  0.00    +0.000 NA
ATOM      6  C   UNL     1     -34.272  -3.545  -4.273  0.00  0.00    +0.000 A 
ATOM      7  C   UNL     1     -33.246  -4.055  -3.487  0.00  0.00    +0.000 A 
ATOM      8  C   UNL     1     -32.046  -4.334  -4.130  0.00  0.00    +0.000 A 
ATOM      9  C   UNL     1     -31.758  -3.710  -5.338  0.00  0.00    +0.000 A 
ATOM     10  C   UNL     1     -32.812  -3.454  -6.209  0.00  0.00    +0.000 A 
ATOM     11  C   UNL     1     -34.076  -3.375  -5.639  0.00  0.00    +0.000 A 
ENDROOT
BRANCH   1  17
ATOM     12  C   UNL     1     -37.929  -4.896  -7.936  0.00  0.00    +0.000 A 
ATOM     13  C   UNL     1     -39.296  -4.739  -8.127  0.00  0.00    +0.000 A 
ATOM     14  C   UNL     1     -39.756  -3.525  -8.611  0.00  0.00    +0.000 A 
ATOM     15  C   UNL     1     -38.850  -2.596  -9.111  0.00  0.00    +0.000 A 
ATOM     16  C   UNL     1     -37.535  -2.708  -8.683  0.00  0.00    +0.000 A 
ATOM     17  C   UNL     1     -37.191  -3.726  -7.801  0.00  0.00    +0.000 A 
ATOM     18  O   UNL     1     -39.513  -1.847 -10.073  0.00  0.00    +0.000 OA
ATOM     19  C   UNL     1     -40.885  -1.901  -9.721  0.00  0.00    +0.000 C 
ATOM     20  O   UNL     1     -41.014  -2.935  -8.761  0.00  0.00    +0.000 OA
BRANCH  12  22
ATOM     21  C   UNL     1     -37.215  -7.064  -8.673  0.00  0.00    +0.000 C 
ATOM     22  O   UNL     1     -37.363  -6.135  -7.617  0.00  0.00    +0.000 OA
ENDBRANCH  12  22
ENDBRANCH   1  17
BRANCH   8  23
ATOM     23  O   UNL     1     -31.072  -5.154  -3.585  0.00  0.00    +0.000 OA
ATOM     24  C   UNL     1     -30.810  -5.250  -2.211  0.00  0.00    +0.000 C 
ENDBRANCH   8  23
BRANCH   9  25
ATOM     25  O   UNL     1     -30.457  -3.277  -5.609  0.00  0.00    +0.000 OA
ATOM     26  C   UNL     1     -29.615  -3.968  -6.529  0.00  0.00    +0.000 C 
ENDBRANCH   9  25
TORSDOF 4
ENDMDL
MODEL 9
REMARK VINA RESULT:      -5.9     18.709     21.685
REMARK  Name = 
REMARK  4 active torsions:
REMARK  status: ('A' for Active; 'I' for Inactive)
REMARK    1  A    between atoms: O_2  and  C_3
REMARK    2  A    between atoms: C_8  and  C_9
REMARK    3  A    between atoms: C_16  and  O_17
REMARK    4  A    between atoms: C_19  and  O_20
REMARK                            x       y       z     vdW  Elec       q    Type
REMARK                         _______ _______ _______ _____ _____    ______ ____
ROOT
ATOM      1  C   UNL     1     -25.603   9.231  -7.358  0.00  0.00    +0.000 C 
ATOM      2  C   UNL     1     -26.842   8.740  -7.314  0.00  0.00    +0.000 C 
ATOM      3  C   UNL     1     -27.841   9.069  -6.298  0.00  0.00    +0.000 C 
ATOM      4  O   UNL     1     -27.585   9.157  -5.059  0.00  0.00    +0.000 OA
ATOM      5  N   UNL     1     -29.107   8.858  -6.930  0.00  0.00    +0.000 NA
ATOM      6  C   UNL     1     -28.923   8.580  -8.317  0.00  0.00    +0.000 A 
ATOM      7  C   UNL     1     -29.768   8.501  -9.418  0.00  0.00    +0.000 A 
ATOM      8  C   UNL     1     -29.232   7.957 -10.579  0.00  0.00    +0.000 A 
ATOM      9  C   UNL     1     -28.113   7.138 -10.496  0.00  0.00    +0.000 A 
ATOM     10  C   UNL     1     -27.162   7.429  -9.524  0.00  0.00    +0.000 A 
ATOM     11  C   UNL     1     -27.602   8.161  -8.429  0.00  0.00    +0.000 A 
ENDROOT
BRANCH   1  17
ATOM     12  C   UNL     1     -25.141  11.356  -6.157  0.00  0.00    +0.000 A 
ATOM     13  C   UNL     1     -24.790  11.950  -4.951  0.00  0.00    +0.000 A 
ATOM     14  C   UNL     1     -24.030  11.216  -4.054  0.00  0.00    +0.000 A 
ATOM     15  C   UNL     1     -23.446  10.023  -4.464  0.00  0.00    +0.000 A 
ATOM     16  C   UNL     1     -24.014   9.389  -5.559  0.00  0.00    +0.000 A 
ATOM     17  C   UNL     1     -25.111   9.967  -6.187  0.00  0.00    +0.000 A 
ATOM     18  O   UNL     1     -22.293   9.847  -3.711  0.00  0.00    +0.000 OA
ATOM     19  C   UNL     1     -22.514  10.556  -2.503  0.00  0.00    +0.000 C 
ATOM     20  O   UNL     1     -23.643  11.382  -2.722  0.00  0.00    +0.000 OA
BRANCH  12  22
ATOM     21  C   UNL     1     -25.559  13.478  -7.195  0.00  0.00    +0.000 C 
ATOM     22  O   UNL     1     -25.755  12.077  -7.187  0.00  0.00    +0.000 OA
ENDBRANCH  12  22
ENDBRANCH   1  17
BRANCH   8  23
ATOM     23  O   UNL     1     -29.808   8.129 -11.827  0.00  0.00    +0.000 OA
ATOM     24  C   UNL     1     -31.044   8.758 -12.037  0.00  0.00    +0.000 C 
ENDBRANCH   8  23
BRANCH   9  25
ATOM     25  O   UNL     1     -28.012   6.007 -11.311  0.00  0.00    +0.000 OA
ATOM     26  C   UNL     1     -28.681   4.790 -10.988  0.00  0.00    +0.000 C 
ENDBRANCH   9  25
TORSDOF 4
ENDMDL
MODEL 10
REMARK VINA RESULT:      -5.9     20.955     23.162
REMARK  Name = 
REMARK  4 active torsions:
REMARK  status: ('A' for Active; 'I' for Inactive)
REMARK    1  A    between atoms: O_2  and  C_3
REMARK    2  A    between atoms: C_8  and  C_9
REMARK    3  A    between atoms: C_16  and  O_17
REMARK    4  A    between atoms: C_19  and  O_20
REMARK                            x       y       z     vdW  Elec       q    Type
REMARK                         _______ _______ _______ _____ _____    ______ ____
ROOT
ATOM      1  C   UNL     1     -35.406  -2.964  -6.758  0.00  0.00    +0.000 C 
ATOM      2  C   UNL     1     -36.097  -3.892  -7.418  0.00  0.00    +0.000 C 
ATOM      3  C   UNL     1     -36.016  -5.332  -7.174  0.00  0.00    +0.000 C 
ATOM      4  O   UNL     1     -34.928  -5.954  -6.975  0.00  0.00    +0.000 OA
ATOM      5  N   UNL     1     -37.274  -5.861  -7.605  0.00  0.00    +0.000 NA
ATOM      6  C   UNL     1     -38.165  -4.798  -7.937  0.00  0.00    +0.000 A 
ATOM      7  C   UNL     1     -39.526  -4.711  -8.205  0.00  0.00    +0.000 A 
ATOM      8  C   UNL     1     -39.984  -3.511  -8.736  0.00  0.00    +0.000 A 
ATOM      9  C   UNL     1     -39.089  -2.664  -9.379  0.00  0.00    +0.000 A 
ATOM     10  C   UNL     1     -37.787  -2.601  -8.895  0.00  0.00    +0.000 A 
ATOM     11  C   UNL     1     -37.345  -3.699  -8.168  0.00  0.00    +0.000 A 
ENDROOT
BRANCH   1  17
ATOM     12  C   UNL     1     -34.459  -3.417  -4.506  0.00  0.00    +0.000 A 
ATOM     13  C   UNL     1     -33.420  -3.990  -3.782  0.00  0.00    +0.000 A 
ATOM     14  C   UNL     1     -32.176  -4.086  -4.384  0.00  0.00    +0.000 A 
ATOM     15  C   UNL     1     -31.933  -3.410  -5.574  0.00  0.00    +0.000 A 
ATOM     16  C   UNL     1     -33.039  -3.071  -6.340  0.00  0.00    +0.000 A 
ATOM     17  C   UNL     1     -34.310  -3.407  -5.888  0.00  0.00    +0.000 A 
ATOM     18  O   UNL     1     -30.579  -3.111  -5.612  0.00  0.00    +0.000 OA
ATOM     19  C   UNL     1     -29.948  -4.093  -4.807  0.00  0.00    +0.000 C 
ATOM     20  O   UNL     1     -30.977  -4.732  -4.071  0.00  0.00    +0.000 OA
BRANCH  12  22
ATOM     21  C   UNL     1     -36.554  -4.214  -3.652  0.00  0.00    +0.000 C 
ATOM     22  O   UNL     1     -35.695  -3.123  -3.921  0.00  0.00    +0.000 OA
ENDBRANCH  12  22
ENDBRANCH   1  17
BRANCH   8  23
ATOM     23  O   UNL     1     -41.319  -3.144  -8.726  0.00  0.00    +0.000 OA
ATOM     24  C   UNL     1     -41.857  -2.177  -7.864  0.00  0.00    +0.000 C 
ENDBRANCH   8  23
BRANCH   9  25
ATOM     25  O   UNL     1     -39.481  -1.978 -10.532  0.00  0.00    +0.000 OA
ATOM     26  C   UNL     1     -39.549  -2.623 -11.801  0.00  0.00    +0.000 C 
ENDBRANCH   9  25
TORSDOF 4
ENDMDL
