MODEL 1
REMARK VINA RESULT:      -5.9      0.000      0.000
REMARK  Name = 
REMARK  5 active torsions:
REMARK  status: ('A' for Active; 'I' for Inactive)
REMARK    1  A    between atoms: O_2  and  C_3
REMARK    2  A    between atoms: C_5  and  O_6
REMARK    3  A    between atoms: C_8  and  C_9
REMARK    4  A    between atoms: C_10  and  C_11
REMARK    5  A    between atoms: C_10  and  C_13
REMARK                            x       y       z     vdW  Elec       q    Type
REMARK                         _______ _______ _______ _____ _____    ______ ____
ROOT
ATOM      1  C   UNL     1     -23.750   9.787  -1.834  0.00  0.00    +0.000 C 
ATOM      2  C   UNL     1     -22.992  10.419  -2.733  0.00  0.00    +0.000 C 
ENDROOT
BRANCH   2   3
ATOM      3  C   UNL     1     -23.499  10.356  -4.088  0.00  0.00    +0.000 A 
ATOM      4  C   UNL     1     -24.551  11.210  -4.400  0.00  0.00    +0.000 A 
ATOM      5  C   UNL     1     -25.323  10.951  -5.512  0.00  0.00    +0.000 A 
ATOM      6  C   UNL     1     -25.093   9.813  -6.277  0.00  0.00    +0.000 A 
ATOM      7  C   UNL     1     -23.957   9.040  -6.078  0.00  0.00    +0.000 A 
ATOM      8  C   UNL     1     -23.124   9.465  -5.049  0.00  0.00    +0.000 A 
ATOM      9  O   UNL     1     -24.287   7.783  -6.601  0.00  0.00    +0.000 OA
ATOM     10  C   UNL     1     -25.431   7.911  -7.427  0.00  0.00    +0.000 C 
ATOM     11  O   UNL     1     -26.069   9.063  -6.941  0.00  0.00    +0.000 OA
ENDBRANCH   2   3
BRANCH   1  15
ATOM     12  C   UNL     1     -24.208   5.641  -1.563  0.00  0.00    +0.000 A 
ATOM     13  C   UNL     1     -22.946   6.186  -1.763  0.00  0.00    +0.000 A 
ATOM     14  C   UNL     1     -22.836   7.569  -1.673  0.00  0.00    +0.000 A 
ATOM     15  C   UNL     1     -23.910   8.349  -2.097  0.00  0.00    +0.000 A 
ATOM     16  C   UNL     1     -25.168   7.820  -1.816  0.00  0.00    +0.000 A 
ATOM     17  C   UNL     1     -25.292   6.439  -1.902  0.00  0.00    +0.000 A 
ATOM     18 BR   UNL     1     -27.025   5.715  -2.237  0.00  0.00    +0.000 Br
BRANCH  12  20
ATOM     19  C   UNL     1     -24.034   3.825   0.012  0.00  0.00    +0.000 C 
ATOM     20  O   UNL     1     -24.427   4.320  -1.244  0.00  0.00    +0.000 OA
ENDBRANCH  12  20
BRANCH  14  21
ATOM     21  O   UNL     1     -21.693   8.141  -1.103  0.00  0.00    +0.000 OA
ATOM     22  C   UNL     1     -20.785   7.420  -0.314  0.00  0.00    +0.000 C 
ENDBRANCH  14  21
ENDBRANCH   1  15
BRANCH   2  23
ATOM     23  C   UNL     1     -22.211  11.564  -2.321  0.00  0.00    +0.000 C 
ATOM     24  N   UNL     1     -21.433  12.337  -1.925  0.00  0.00    +0.000 NA
ENDBRANCH   2  23
TORSDOF 5
ENDMDL
MODEL 2
REMARK VINA RESULT:      -5.7      2.262      6.013
REMARK  Name = 
REMARK  5 active torsions:
REMARK  status: ('A' for Active; 'I' for Inactive)
REMARK    1  A    between atoms: O_2  and  C_3
REMARK    2  A    between atoms: C_5  and  O_6
REMARK    3  A    between atoms: C_8  and  C_9
REMARK    4  A    between atoms: C_10  and  C_11
REMARK    5  A    between atoms: C_10  and  C_13
REMARK                            x       y       z     vdW  Elec       q    Type
REMARK                         _______ _______ _______ _____ _____    ______ ____
ROOT
ATOM      1  C   UNL     1     -22.823   9.149  -2.931  0.00  0.00    +0.000 C 
ATOM      2  C   UNL     1     -23.264   8.785  -1.724  0.00  0.00    +0.000 C 
ENDROOT
BRANCH   2   3
ATOM      3  C   UNL     1     -24.155   7.644  -1.736  0.00  0.00    +0.000 A 
ATOM      4  C   UNL     1     -25.447   7.857  -1.271  0.00  0.00    +0.000 A 
ATOM      5  C   UNL     1     -26.216   6.777  -0.897  0.00  0.00    +0.000 A 
ATOM      6  C   UNL     1     -25.684   5.493  -0.924  0.00  0.00    +0.000 A 
ATOM      7  C   UNL     1     -24.461   5.242  -1.533  0.00  0.00    +0.000 A 
ATOM      8  C   UNL     1     -23.818   6.361  -2.051  0.00  0.00    +0.000 A 
ATOM      9  O   UNL     1     -24.013   4.050  -0.951  0.00  0.00    +0.000 OA
ATOM     10  C   UNL     1     -25.101   3.411  -0.307  0.00  0.00    +0.000 C 
ATOM     11  O   UNL     1     -25.992   4.460  -0.032  0.00  0.00    +0.000 OA
ENDBRANCH   2   3
BRANCH   1  15
ATOM     12  C   UNL     1     -25.124  10.798  -6.006  0.00  0.00    +0.000 A 
ATOM     13  C   UNL     1     -25.157  11.363  -4.737  0.00  0.00    +0.000 A 
ATOM     14  C   UNL     1     -24.245  10.877  -3.807  0.00  0.00    +0.000 A 
ATOM     15  C   UNL     1     -23.892   9.531  -3.865  0.00  0.00    +0.000 A 
ATOM     16  C   UNL     1     -23.787   9.005  -5.150  0.00  0.00    +0.000 A 
ATOM     17  C   UNL     1     -24.693   9.481  -6.090  0.00  0.00    +0.000 A 
ATOM     18 BR   UNL     1     -25.095   8.370  -7.589  0.00  0.00    +0.000 Br
BRANCH  12  20
ATOM     19  C   UNL     1     -26.106  12.728  -7.064  0.00  0.00    +0.000 C 
ATOM     20  O   UNL     1     -25.667  11.394  -7.122  0.00  0.00    +0.000 OA
ENDBRANCH  12  20
BRANCH  14  21
ATOM     21  O   UNL     1     -23.655  11.753  -2.889  0.00  0.00    +0.000 OA
ATOM     22  C   UNL     1     -22.940  12.899  -3.269  0.00  0.00    +0.000 C 
ENDBRANCH  14  21
ENDBRANCH   1  15
BRANCH   2  23
ATOM     23  C   UNL     1     -22.433   9.025  -0.565  0.00  0.00    +0.000 C 
ATOM     24  N   UNL     1     -21.950   9.288   0.464  0.00  0.00    +0.000 NA
ENDBRANCH   2  23
TORSDOF 5
ENDMDL
MODEL 3
REMARK VINA RESULT:      -5.7     15.779     17.741
REMARK  Name = 
REMARK  5 active torsions:
REMARK  status: ('A' for Active; 'I' for Inactive)
REMARK    1  A    between atoms: O_2  and  C_3
REMARK    2  A    between atoms: C_5  and  O_6
REMARK    3  A    between atoms: C_8  and  C_9
REMARK    4  A    between atoms: C_10  and  C_11
REMARK    5  A    between atoms: C_10  and  C_13
REMARK                            x       y       z     vdW  Elec       q    Type
REMARK                         _______ _______ _______ _____ _____    ______ ____
ROOT
ATOM      1  C   UNL     1     -35.398  -4.594  -5.636  0.00  0.00    +0.000 C 
ATOM      2  C   UNL     1     -34.088  -4.351  -5.552  0.00  0.00    +0.000 C 
ENDROOT
BRANCH   2   3
ATOM      3  C   UNL     1     -33.452  -4.916  -4.381  0.00  0.00    +0.000 A 
ATOM      4  C   UNL     1     -33.040  -4.020  -3.402  0.00  0.00    +0.000 A 
ATOM      5  C   UNL     1     -32.111  -4.423  -2.467  0.00  0.00    +0.000 A 
ATOM      6  C   UNL     1     -31.546  -5.691  -2.539  0.00  0.00    +0.000 A 
ATOM      7  C   UNL     1     -32.057  -6.650  -3.406  0.00  0.00    +0.000 A 
ATOM      8  C   UNL     1     -33.117  -6.225  -4.199  0.00  0.00    +0.000 A 
ATOM      9  O   UNL     1     -31.003  -7.551  -3.598  0.00  0.00    +0.000 OA
ATOM     10  C   UNL     1     -30.032  -7.353  -2.586  0.00  0.00    +0.000 C 
ATOM     11  O   UNL     1     -30.235  -6.024  -2.181  0.00  0.00    +0.000 OA
ENDBRANCH   2   3
BRANCH   1  15
ATOM     12  C   UNL     1     -38.292  -2.882  -3.153  0.00  0.00    +0.000 A 
ATOM     13  C   UNL     1     -37.228  -2.114  -3.608  0.00  0.00    +0.000 A 
ATOM     14  C   UNL     1     -36.398  -2.690  -4.563  0.00  0.00    +0.000 A 
ATOM     15  C   UNL     1     -36.176  -4.064  -4.506  0.00  0.00    +0.000 A 
ATOM     16  C   UNL     1     -37.279  -4.823  -4.124  0.00  0.00    +0.000 A 
ATOM     17  C   UNL     1     -38.117  -4.259  -3.170  0.00  0.00    +0.000 A 
ATOM     18 BR   UNL     1     -39.176  -5.434  -2.103  0.00  0.00    +0.000 Br
BRANCH  12  20
ATOM     19  C   UNL     1     -40.536  -2.010  -3.270  0.00  0.00    +0.000 C 
ATOM     20  O   UNL     1     -39.398  -2.358  -2.522  0.00  0.00    +0.000 OA
ENDBRANCH  12  20
BRANCH  14  21
ATOM     21  O   UNL     1     -35.865  -1.901  -5.589  0.00  0.00    +0.000 OA
ATOM     22  C   UNL     1     -36.653  -1.114  -6.442  0.00  0.00    +0.000 C 
ENDBRANCH  14  21
ENDBRANCH   1  15
BRANCH   2  23
ATOM     23  C   UNL     1     -33.320  -4.183  -6.766  0.00  0.00    +0.000 C 
ATOM     24  N   UNL     1     -32.863  -4.164  -7.839  0.00  0.00    +0.000 NA
ENDBRANCH   2  23
TORSDOF 5
ENDMDL
MODEL 4
REMARK VINA RESULT:      -5.6      1.658      2.337
REMARK  Name = 
REMARK  5 active torsions:
REMARK  status: ('A' for Active; 'I' for Inactive)
REMARK    1  A    between atoms: O_2  and  C_3
REMARK    2  A    between atoms: C_5  and  O_6
REMARK    3  A    between atoms: C_8  and  C_9
REMARK    4  A    between atoms: C_10  and  C_11
REMARK    5  A    between atoms: C_10  and  C_13
REMARK                            x       y       z     vdW  Elec       q    Type
REMARK                         _______ _______ _______ _____ _____    ______ ____
ROOT
ATOM      1  C   UNL     1     -24.910   9.529  -3.269  0.00  0.00    +0.000 C 
ATOM      2  C   UNL     1     -24.400   9.949  -4.429  0.00  0.00    +0.000 C 
ENDROOT
BRANCH   2   3
ATOM      3  C   UNL     1     -24.967   9.306  -5.595  0.00  0.00    +0.000 A 
ATOM      4  C   UNL     1     -24.119   8.481  -6.326  0.00  0.00    +0.000 A 
ATOM      5  C   UNL     1     -24.453   8.149  -7.621  0.00  0.00    +0.000 A 
ATOM      6  C   UNL     1     -25.592   8.683  -8.212  0.00  0.00    +0.000 A 
ATOM      7  C   UNL     1     -26.529   9.374  -7.455  0.00  0.00    +0.000 A 
ATOM      8  C   UNL     1     -26.211   9.519  -6.109  0.00  0.00    +0.000 A 
ATOM      9  O   UNL     1     -27.214  10.172  -8.380  0.00  0.00    +0.000 OA
ATOM     10  C   UNL     1     -26.959   9.689  -9.687  0.00  0.00    +0.000 C 
ATOM     11  O   UNL     1     -25.733   9.017  -9.564  0.00  0.00    +0.000 OA
ENDBRANCH   2   3
BRANCH   1  15
ATOM     12  C   UNL     1     -24.413   5.734  -1.589  0.00  0.00    +0.000 A 
ATOM     13  C   UNL     1     -23.303   6.459  -2.002  0.00  0.00    +0.000 A 
ATOM     14  C   UNL     1     -23.519   7.776  -2.392  0.00  0.00    +0.000 A 
ATOM     15  C   UNL     1     -24.721   8.092  -3.021  0.00  0.00    +0.000 A 
ATOM     16  C   UNL     1     -25.835   7.411  -2.538  0.00  0.00    +0.000 A 
ATOM     17  C   UNL     1     -25.633   6.094  -2.145  0.00  0.00    +0.000 A 
ATOM     18 BR   UNL     1     -27.134   4.915  -2.159  0.00  0.00    +0.000 Br
BRANCH  12  20
ATOM     19  C   UNL     1     -24.381   4.664   0.571  0.00  0.00    +0.000 C 
ATOM     20  O   UNL     1     -24.338   4.586  -0.832  0.00  0.00    +0.000 OA
ENDBRANCH  12  20
BRANCH  14  21
ATOM     21  O   UNL     1     -22.569   8.757  -2.086  0.00  0.00    +0.000 OA
ATOM     22  C   UNL     1     -22.277   9.162  -0.775  0.00  0.00    +0.000 C 
ENDBRANCH  14  21
ENDBRANCH   1  15
BRANCH   2  23
ATOM     23  C   UNL     1     -23.905  11.304  -4.536  0.00  0.00    +0.000 C 
ATOM     24  N   UNL     1     -23.630  12.434  -4.443  0.00  0.00    +0.000 NA
ENDBRANCH   2  23
TORSDOF 5
ENDMDL
MODEL 5
REMARK VINA RESULT:      -5.6     15.709     18.598
REMARK  Name = 
REMARK  5 active torsions:
REMARK  status: ('A' for Active; 'I' for Inactive)
REMARK    1  A    between atoms: O_2  and  C_3
REMARK    2  A    between atoms: C_5  and  O_6
REMARK    3  A    between atoms: C_8  and  C_9
REMARK    4  A    between atoms: C_10  and  C_11
REMARK    5  A    between atoms: C_10  and  C_13
REMARK                            x       y       z     vdW  Elec       q    Type
REMARK                         _______ _______ _______ _____ _____    ______ ____
ROOT
ATOM      1  C   UNL     1     -34.697  -7.046  -3.018  0.00  0.00    +0.000 C 
ATOM      2  C   UNL     1     -33.440  -7.191  -2.593  0.00  0.00    +0.000 C 
ENDROOT
BRANCH   2   3
ATOM      3  C   UNL     1     -32.534  -6.158  -3.051  0.00  0.00    +0.000 A 
ATOM      4  C   UNL     1     -32.816  -4.859  -2.647  0.00  0.00    +0.000 A 
ATOM      5  C   UNL     1     -32.252  -3.803  -3.330  0.00  0.00    +0.000 A 
ATOM      6  C   UNL     1     -31.461  -4.032  -4.450  0.00  0.00    +0.000 A 
ATOM      7  C   UNL     1     -31.040  -5.316  -4.772  0.00  0.00    +0.000 A 
ATOM      8  C   UNL     1     -31.504  -6.320  -3.930  0.00  0.00    +0.000 A 
ATOM      9  O   UNL     1     -30.743  -5.259  -6.139  0.00  0.00    +0.000 OA
ATOM     10  C   UNL     1     -30.620  -3.903  -6.531  0.00  0.00    +0.000 C 
ATOM     11  O   UNL     1     -31.380  -3.208  -5.577  0.00  0.00    +0.000 OA
ENDBRANCH   2   3
BRANCH   1  15
ATOM     12  C   UNL     1     -36.077  -7.243  -6.958  0.00  0.00    +0.000 A 
ATOM     13  C   UNL     1     -35.528  -8.370  -6.360  0.00  0.00    +0.000 A 
ATOM     14  C   UNL     1     -35.247  -8.288  -5.000  0.00  0.00    +0.000 A 
ATOM     15  C   UNL     1     -34.836  -7.063  -4.482  0.00  0.00    +0.000 A 
ATOM     16  C   UNL     1     -35.457  -5.949  -5.041  0.00  0.00    +0.000 A 
ATOM     17  C   UNL     1     -35.743  -6.017  -6.399  0.00  0.00    +0.000 A 
ATOM     18 BR   UNL     1     -35.911  -4.378  -7.362  0.00  0.00    +0.000 Br
BRANCH  12  20
ATOM     19  C   UNL     1     -36.091  -7.679  -9.329  0.00  0.00    +0.000 C 
ATOM     20  O   UNL     1     -36.751  -7.267  -8.158  0.00  0.00    +0.000 OA
ENDBRANCH  12  20
BRANCH  14  21
ATOM     21  O   UNL     1     -35.446  -9.404  -4.180  0.00  0.00    +0.000 OA
ATOM     22  C   UNL     1     -36.504 -10.308  -4.355  0.00  0.00    +0.000 C 
ENDBRANCH  14  21
ENDBRANCH   1  15
BRANCH   2  23
ATOM     23  C   UNL     1     -33.191  -7.841  -1.325  0.00  0.00    +0.000 C 
ATOM     24  N   UNL     1     -33.134  -8.217  -0.222  0.00  0.00    +0.000 NA
ENDBRANCH   2  23
TORSDOF 5
ENDMDL
MODEL 6
REMARK VINA RESULT:      -5.4     24.556     26.981
REMARK  Name = 
REMARK  5 active torsions:
REMARK  status: ('A' for Active; 'I' for Inactive)
REMARK    1  A    between atoms: O_2  and  C_3
REMARK    2  A    between atoms: C_5  and  O_6
REMARK    3  A    between atoms: C_8  and  C_9
REMARK    4  A    between atoms: C_10  and  C_11
REMARK    5  A    between atoms: C_10  and  C_13
REMARK                            x       y       z     vdW  Elec       q    Type
REMARK                         _______ _______ _______ _____ _____    ______ ____
ROOT
ATOM      1  C   UNL     1       1.152   0.636   3.955  0.00  0.00    +0.000 C 
ATOM      2  C   UNL     1      -0.033   1.225   4.134  0.00  0.00    +0.000 C 
ENDROOT
BRANCH   2   3
ATOM      3  C   UNL     1      -0.943   0.484   4.981  0.00  0.00    +0.000 A 
ATOM      4  C   UNL     1      -2.190   0.186   4.444  0.00  0.00    +0.000 A 
ATOM      5  C   UNL     1      -3.222  -0.164   5.288  0.00  0.00    +0.000 A 
ATOM      6  C   UNL     1      -3.036  -0.157   6.666  0.00  0.00    +0.000 A 
ATOM      7  C   UNL     1      -1.766  -0.019   7.211  0.00  0.00    +0.000 A 
ATOM      8  C   UNL     1      -0.740   0.152   6.287  0.00  0.00    +0.000 A 
ATOM      9  O   UNL     1      -1.987   0.451   8.511  0.00  0.00    +0.000 OA
ATOM     10  C   UNL     1      -3.343   0.233   8.859  0.00  0.00    +0.000 C 
ATOM     11  O   UNL     1      -4.002   0.177   7.620  0.00  0.00    +0.000 OA
ENDBRANCH   2   3
BRANCH   1  15
ATOM     12  C   UNL     1       1.845  -2.898   1.833  0.00  0.00    +0.000 A 
ATOM     13  C   UNL     1       1.113  -1.872   1.249  0.00  0.00    +0.000 A 
ATOM     14  C   UNL     1       1.063  -0.664   1.936  0.00  0.00    +0.000 A 
ATOM     15  C   UNL     1       1.068  -0.691   3.328  0.00  0.00    +0.000 A 
ATOM     16  C   UNL     1       1.871  -1.678   3.894  0.00  0.00    +0.000 A 
ATOM     17  C   UNL     1       1.930  -2.891   3.219  0.00  0.00    +0.000 A 
ATOM     18 BR   UNL     1       2.379  -4.452   4.220  0.00  0.00    +0.000 Br
BRANCH  12  20
ATOM     19  C   UNL     1       1.816  -4.277  -0.143  0.00  0.00    +0.000 C 
ATOM     20  O   UNL     1       2.308  -3.995   1.143  0.00  0.00    +0.000 OA
ENDBRANCH  12  20
BRANCH  14  21
ATOM     21  O   UNL     1       1.079   0.542   1.224  0.00  0.00    +0.000 OA
ATOM     22  C   UNL     1       2.188   0.985   0.488  0.00  0.00    +0.000 C 
ENDBRANCH  14  21
ENDBRANCH   1  15
BRANCH   2  23
ATOM     23  C   UNL     1      -0.120   2.668   4.089  0.00  0.00    +0.000 C 
ATOM     24  N   UNL     1      -0.134   3.821   4.266  0.00  0.00    +0.000 NA
ENDBRANCH   2  23
TORSDOF 5
ENDMDL
MODEL 7
REMARK VINA RESULT:      -5.4     25.434     27.688
REMARK  Name = 
REMARK  5 active torsions:
REMARK  status: ('A' for Active; 'I' for Inactive)
REMARK    1  A    between atoms: O_2  and  C_3
REMARK    2  A    between atoms: C_5  and  O_6
REMARK    3  A    between atoms: C_8  and  C_9
REMARK    4  A    between atoms: C_10  and  C_11
REMARK    5  A    between atoms: C_10  and  C_13
REMARK                            x       y       z     vdW  Elec       q    Type
REMARK                         _______ _______ _______ _____ _____    ______ ____
ROOT
ATOM      1  C   UNL     1     -21.407  -9.246 -22.728  0.00  0.00    +0.000 C 
ATOM      2  C   UNL     1     -21.742  -8.105 -23.335  0.00  0.00    +0.000 C 
ENDROOT
BRANCH   2   3
ATOM      3  C   UNL     1     -23.074  -8.101 -23.902  0.00  0.00    +0.000 A 
ATOM      4  C   UNL     1     -23.161  -8.034 -25.288  0.00  0.00    +0.000 A 
ATOM      5  C   UNL     1     -24.349  -7.647 -25.871  0.00  0.00    +0.000 A 
ATOM      6  C   UNL     1     -25.429  -7.269 -25.082  0.00  0.00    +0.000 A 
ATOM      7  C   UNL     1     -25.415  -7.481 -23.709  0.00  0.00    +0.000 A 
ATOM      8  C   UNL     1     -24.246  -8.043 -23.208  0.00  0.00    +0.000 A 
ATOM      9  O   UNL     1     -26.347  -6.568 -23.200  0.00  0.00    +0.000 OA
ATOM     10  C   UNL     1     -27.164  -6.100 -24.258  0.00  0.00    +0.000 C 
ATOM     11  O   UNL     1     -26.372  -6.287 -25.402  0.00  0.00    +0.000 OA
ENDBRANCH   2   3
BRANCH   1  15
ATOM     12  C   UNL     1     -20.997 -13.027 -24.461  0.00  0.00    +0.000 A 
ATOM     13  C   UNL     1     -20.078 -12.028 -24.754  0.00  0.00    +0.000 A 
ATOM     14  C   UNL     1     -20.169 -10.852 -24.018  0.00  0.00    +0.000 A 
ATOM     15  C   UNL     1     -21.430 -10.420 -23.614  0.00  0.00    +0.000 A 
ATOM     16  C   UNL     1     -22.311 -11.434 -23.248  0.00  0.00    +0.000 A 
ATOM     17  C   UNL     1     -22.231 -12.615 -23.976  0.00  0.00    +0.000 A 
ATOM     18 BR   UNL     1     -23.778 -13.730 -24.046  0.00  0.00    +0.000 Br
BRANCH  12  20
ATOM     19  C   UNL     1     -20.205 -15.234 -23.902  0.00  0.00    +0.000 C 
ATOM     20  O   UNL     1     -20.823 -14.350 -24.803  0.00  0.00    +0.000 OA
ENDBRANCH  12  20
BRANCH  14  21
ATOM     21  O   UNL     1     -19.004 -10.172 -23.645  0.00  0.00    +0.000 OA
ATOM     22  C   UNL     1     -18.004  -9.803 -24.556  0.00  0.00    +0.000 C 
ENDBRANCH  14  21
ENDBRANCH   1  15
BRANCH   2  23
ATOM     23  C   UNL     1     -21.164  -6.861 -22.875  0.00  0.00    +0.000 C 
ATOM     24  N   UNL     1     -20.877  -5.767 -22.591  0.00  0.00    +0.000 NA
ENDBRANCH   2  23
TORSDOF 5
ENDMDL
MODEL 8
REMARK VINA RESULT:      -5.4      2.578      6.233
REMARK  Name = 
REMARK  5 active torsions:
REMARK  status: ('A' for Active; 'I' for Inactive)
REMARK    1  A    between atoms: O_2  and  C_3
REMARK    2  A    between atoms: C_5  and  O_6
REMARK    3  A    between atoms: C_8  and  C_9
REMARK    4  A    between atoms: C_10  and  C_11
REMARK    5  A    between atoms: C_10  and  C_13
REMARK                            x       y       z     vdW  Elec       q    Type
REMARK                         _______ _______ _______ _____ _____    ______ ____
ROOT
ATOM      1  C   UNL     1     -22.984   6.640  -2.131  0.00  0.00    +0.000 C 
ATOM      2  C   UNL     1     -22.589   6.452  -0.869  0.00  0.00    +0.000 C 
ENDROOT
BRANCH   2   3
ATOM      3  C   UNL     1     -23.552   5.758  -0.041  0.00  0.00    +0.000 A 
ATOM      4  C   UNL     1     -23.833   4.440  -0.384  0.00  0.00    +0.000 A 
ATOM      5  C   UNL     1     -24.983   3.850   0.095  0.00  0.00    +0.000 A 
ATOM      6  C   UNL     1     -25.883   4.583   0.860  0.00  0.00    +0.000 A 
ATOM      7  C   UNL     1     -25.547   5.841   1.343  0.00  0.00    +0.000 A 
ATOM      8  C   UNL     1     -24.291   6.303   0.966  0.00  0.00    +0.000 A 
ATOM      9  O   UNL     1     -26.776   6.466   1.591  0.00  0.00    +0.000 OA
ATOM     10  C   UNL     1     -27.797   5.485   1.621  0.00  0.00    +0.000 C 
ATOM     11  O   UNL     1     -27.274   4.431   0.855  0.00  0.00    +0.000 OA
ENDBRANCH   2   3
BRANCH   1  15
ATOM     12  C   UNL     1     -26.219   8.922  -3.472  0.00  0.00    +0.000 A 
ATOM     13  C   UNL     1     -25.107   9.551  -2.927  0.00  0.00    +0.000 A 
ATOM     14  C   UNL     1     -24.000   8.753  -2.659  0.00  0.00    +0.000 A 
ATOM     15  C   UNL     1     -24.214   7.437  -2.256  0.00  0.00    +0.000 A 
ATOM     16  C   UNL     1     -25.286   6.799  -2.874  0.00  0.00    +0.000 A 
ATOM     17  C   UNL     1     -26.399   7.584  -3.147  0.00  0.00    +0.000 A 
ATOM     18 BR   UNL     1     -28.090   6.715  -3.309  0.00  0.00    +0.000 Br
BRANCH  12  20
ATOM     19  C   UNL     1     -27.152   9.767  -5.527  0.00  0.00    +0.000 C 
ATOM     20  O   UNL     1     -27.225   9.588  -4.135  0.00  0.00    +0.000 OA
ENDBRANCH  12  20
BRANCH  14  21
ATOM     21  O   UNL     1     -22.712   9.260  -2.863  0.00  0.00    +0.000 OA
ATOM     22  C   UNL     1     -22.390  10.146  -3.902  0.00  0.00    +0.000 C 
ENDBRANCH  14  21
ENDBRANCH   1  15
BRANCH   2  23
ATOM     23  C   UNL     1     -21.177   6.314  -0.583  0.00  0.00    +0.000 C 
ATOM     24  N   UNL     1     -20.103   6.032  -0.228  0.00  0.00    +0.000 NA
ENDBRANCH   2  23
TORSDOF 5
ENDMDL
MODEL 9
REMARK VINA RESULT:      -5.3      8.132     10.768
REMARK  Name = 
REMARK  5 active torsions:
REMARK  status: ('A' for Active; 'I' for Inactive)
REMARK    1  A    between atoms: O_2  and  C_3
REMARK    2  A    between atoms: C_5  and  O_6
REMARK    3  A    between atoms: C_8  and  C_9
REMARK    4  A    between atoms: C_10  and  C_11
REMARK    5  A    between atoms: C_10  and  C_13
REMARK                            x       y       z     vdW  Elec       q    Type
REMARK                         _______ _______ _______ _____ _____    ______ ____
ROOT
ATOM      1  C   UNL     1     -29.169   7.086 -11.228  0.00  0.00    +0.000 C 
ATOM      2  C   UNL     1     -29.601   6.155 -10.374  0.00  0.00    +0.000 C 
ENDROOT
BRANCH   2   3
ATOM      3  C   UNL     1     -30.937   6.387  -9.867  0.00  0.00    +0.000 A 
ATOM      4  C   UNL     1     -31.988   6.129 -10.740  0.00  0.00    +0.000 A 
ATOM      5  C   UNL     1     -33.228   6.672 -10.481  0.00  0.00    +0.000 A 
ATOM      6  C   UNL     1     -33.411   7.520  -9.395  0.00  0.00    +0.000 A 
ATOM      7  C   UNL     1     -32.423   7.661  -8.428  0.00  0.00    +0.000 A 
ATOM      8  C   UNL     1     -31.258   6.940  -8.663  0.00  0.00    +0.000 A 
ATOM      9  O   UNL     1     -32.694   8.894  -7.822  0.00  0.00    +0.000 OA
ATOM     10  C   UNL     1     -34.014   9.292  -8.148  0.00  0.00    +0.000 C 
ATOM     11  O   UNL     1     -34.282   8.613  -9.348  0.00  0.00    +0.000 OA
ENDBRANCH   2   3
BRANCH   1  15
ATOM     12  C   UNL     1     -28.457  11.128 -10.434  0.00  0.00    +0.000 A 
ATOM     13  C   UNL     1     -27.654  10.156  -9.851  0.00  0.00    +0.000 A 
ATOM     14  C   UNL     1     -27.832   8.847 -10.287  0.00  0.00    +0.000 A 
ATOM     15  C   UNL     1     -29.111   8.439 -10.654  0.00  0.00    +0.000 A 
ATOM     16  C   UNL     1     -29.872   9.405 -11.309  0.00  0.00    +0.000 A 
ATOM     17  C   UNL     1     -29.705  10.717 -10.883  0.00  0.00    +0.000 A 
ATOM     18 BR   UNL     1     -31.135  11.944 -11.181  0.00  0.00    +0.000 Br
BRANCH  12  20
ATOM     19  C   UNL     1     -27.162  12.962  -9.557  0.00  0.00    +0.000 C 
ATOM     20  O   UNL     1     -28.167  12.473 -10.410  0.00  0.00    +0.000 OA
ENDBRANCH  12  20
BRANCH  14  21
ATOM     21  O   UNL     1     -26.725   7.999 -10.411  0.00  0.00    +0.000 OA
ATOM     22  C   UNL     1     -25.539   8.172  -9.683  0.00  0.00    +0.000 C 
ENDBRANCH  14  21
ENDBRANCH   1  15
BRANCH   2  23
ATOM     23  C   UNL     1     -29.116   4.798 -10.502  0.00  0.00    +0.000 C 
ATOM     24  N   UNL     1     -28.827   3.672 -10.411  0.00  0.00    +0.000 NA
ENDBRANCH   2  23
TORSDOF 5
ENDMDL
MODEL 10
REMARK VINA RESULT:      -5.2      5.803      9.525
REMARK  Name = 
REMARK  5 active torsions:
REMARK  status: ('A' for Active; 'I' for Inactive)
REMARK    1  A    between atoms: O_2  and  C_3
REMARK    2  A    between atoms: C_5  and  O_6
REMARK    3  A    between atoms: C_8  and  C_9
REMARK    4  A    between atoms: C_10  and  C_11
REMARK    5  A    between atoms: C_10  and  C_13
REMARK                            x       y       z     vdW  Elec       q    Type
REMARK                         _______ _______ _______ _____ _____    ______ ____
ROOT
ATOM      1  C   UNL     1     -28.776   9.515 -10.777  0.00  0.00    +0.000 C 
ATOM      2  C   UNL     1     -28.122  10.099  -9.770  0.00  0.00    +0.000 C 
ENDROOT
BRANCH   2   3
ATOM      3  C   UNL     1     -27.579   9.173  -8.798  0.00  0.00    +0.000 A 
ATOM      4  C   UNL     1     -28.281   9.038  -7.606  0.00  0.00    +0.000 A 
ATOM      5  C   UNL     1     -27.650   8.492  -6.510  0.00  0.00    +0.000 A 
ATOM      6  C   UNL     1     -26.307   8.138  -6.576  0.00  0.00    +0.000 A 
ATOM      7  C   UNL     1     -25.636   8.116  -7.792  0.00  0.00    +0.000 A 
ATOM      8  C   UNL     1     -26.391   8.511  -8.891  0.00  0.00    +0.000 A 
ATOM      9  O   UNL     1     -24.283   8.234  -7.452  0.00  0.00    +0.000 OA
ATOM     10  C   UNL     1     -24.123   7.948  -6.074  0.00  0.00    +0.000 C 
ATOM     11  O   UNL     1     -25.386   8.223  -5.526  0.00  0.00    +0.000 OA
ENDBRANCH   2   3
BRANCH   1  15
ATOM     12  C   UNL     1     -32.295   7.272 -10.557  0.00  0.00    +0.000 A 
ATOM     13  C   UNL     1     -32.320   8.630 -10.262  0.00  0.00    +0.000 A 
ATOM     14  C   UNL     1     -31.159   9.351 -10.519  0.00  0.00    +0.000 A 
ATOM     15  C   UNL     1     -29.932   8.714 -10.351  0.00  0.00    +0.000 A 
ATOM     16  C   UNL     1     -29.909   7.373 -10.727  0.00  0.00    +0.000 A 
ATOM     17  C   UNL     1     -31.062   6.640 -10.476  0.00  0.00    +0.000 A 
ATOM     18 BR   UNL     1     -30.897   4.748 -10.286  0.00  0.00    +0.000 Br
BRANCH  12  20
ATOM     19  C   UNL     1     -34.639   6.902 -10.134  0.00  0.00    +0.000 C 
ATOM     20  O   UNL     1     -33.427   6.507 -10.726  0.00  0.00    +0.000 OA
ENDBRANCH  12  20
BRANCH  14  21
ATOM     21  O   UNL     1     -31.247  10.662 -11.000  0.00  0.00    +0.000 OA
ATOM     22  C   UNL     1     -31.591  11.756 -10.191  0.00  0.00    +0.000 C 
ENDBRANCH  14  21
ENDBRANCH   1  15
BRANCH   2  23
ATOM     23  C   UNL     1     -27.455  11.362  -9.996  0.00  0.00    +0.000 C 
ATOM     24  N   UNL     1     -26.775  12.309 -10.025  0.00  0.00    +0.000 NA
ENDBRANCH   2  23
TORSDOF 5
ENDMDL
