MODEL 1
REMARK VINA RESULT:      -6.4      0.000      0.000
REMARK  Name = 
REMARK  4 active torsions:
REMARK  status: ('A' for Active; 'I' for Inactive)
REMARK    1  A    between atoms: O_2  and  C_3
REMARK    2  A    between atoms: C_8  and  O_9
REMARK    3  A    between atoms: C_21  and  O_22
REMARK    4  A    between atoms: C_28  and  N_29
REMARK                            x       y       z     vdW  Elec       q    Type
REMARK                         _______ _______ _______ _____ _____    ______ ____
ROOT
ATOM      1  C   UNL     1     -27.282  -2.676   5.546  0.00  0.00    +0.000 A 
ATOM      2  C   UNL     1     -26.561  -2.576   4.367  0.00  0.00    +0.000 A 
ATOM      3  C   UNL     1     -26.427  -1.330   3.815  0.00  0.00    +0.000 A 
ATOM      4  C   UNL     1     -27.241  -0.301   4.273  0.00  0.00    +0.000 A 
ATOM      5  C   UNL     1     -27.924  -0.380   5.468  0.00  0.00    +0.000 A 
ATOM      6  C   UNL     1     -27.925  -1.595   6.113  0.00  0.00    +0.000 A 
ATOM      7  C   UNL     1     -28.622   0.880   5.636  0.00  0.00    +0.000 C 
ATOM      8  O   UNL     1     -29.107   1.241   6.723  0.00  0.00    +0.000 OA
ATOM      9  N   UNL     1     -28.164   1.776   4.635  0.00  0.00    +0.000 N 
ATOM     10  C   UNL     1     -27.701   0.913   3.583  0.00  0.00    +0.000 C 
ATOM     11  C   UNL     1     -27.473   1.171   2.293  0.00  0.00    +0.000 C 
ATOM     12  C   UNL     1     -27.399   2.499   1.676  0.00  0.00    +0.000 A 
ATOM     13  C   UNL     1     -27.817   3.682   2.270  0.00  0.00    +0.000 A 
ATOM     14  C   UNL     1     -27.577   4.825   1.529  0.00  0.00    +0.000 A 
ATOM     15  C   UNL     1     -27.049   4.785   0.259  0.00  0.00    +0.000 A 
ATOM     16  C   UNL     1     -26.497   3.599  -0.209  0.00  0.00    +0.000 A 
ATOM     17  C   UNL     1     -26.601   2.456   0.557  0.00  0.00    +0.000 A 
ATOM     18  O   UNL     1     -26.148   3.718  -1.536  0.00  0.00    +0.000 OA
ATOM     19  C   UNL     1     -26.268   5.089  -1.894  0.00  0.00    +0.000 C 
ATOM     20  O   UNL     1     -26.685   5.737  -0.697  0.00  0.00    +0.000 OA
ATOM     21  C   UNL     1     -27.922   3.924   3.741  0.00  0.00    +0.000 C 
ATOM     22  C   UNL     1     -29.191   2.929   4.198  0.00  0.00    +0.000 C 
ENDROOT
BRANCH  22  23
ATOM     23  N   UNL     1     -29.263   3.520   5.687  0.00  0.00    +0.000 NA
ATOM     24  C   UNL     1     -30.542   4.226   5.518  0.00  0.00    +0.000 C 
ATOM     25  C   UNL     1     -28.316   4.583   5.766  0.00  0.00    +0.000 C 
ENDBRANCH  22  23
BRANCH   1  27
ATOM     26  C   UNL     1     -26.800  -4.327   6.447  0.00  0.00    +0.000 C 
ATOM     27  O   UNL     1     -27.158  -3.871   6.255  0.00  0.00    +0.000 OA
ENDBRANCH   1  27
BRANCH   6  28
ATOM     28  O   UNL     1     -28.558  -1.675   7.335  0.00  0.00    +0.000 OA
ATOM     29  C   UNL     1     -27.821  -1.385   8.518  0.00  0.00    +0.000 C 
ENDBRANCH   6  28
BRANCH  17  30
ATOM     30  O   UNL     1     -25.656   1.447   0.349  0.00  0.00    +0.000 OA
ATOM     31  C   UNL     1     -24.304   1.733   0.137  0.00  0.00    +0.000 C 
ENDBRANCH  17  30
TORSDOF 4
ENDMDL
MODEL 2
REMARK VINA RESULT:      -6.4     12.457     13.209
REMARK  Name = 
REMARK  4 active torsions:
REMARK  status: ('A' for Active; 'I' for Inactive)
REMARK    1  A    between atoms: O_2  and  C_3
REMARK    2  A    between atoms: C_8  and  O_9
REMARK    3  A    between atoms: C_21  and  O_22
REMARK    4  A    between atoms: C_28  and  N_29
REMARK                            x       y       z     vdW  Elec       q    Type
REMARK                         _______ _______ _______ _____ _____    ______ ____
ROOT
ATOM      1  C   UNL     1     -37.541  -9.090  -2.451  0.00  0.00    +0.000 A 
ATOM      2  C   UNL     1     -36.182  -9.357  -2.390  0.00  0.00    +0.000 A 
ATOM      3  C   UNL     1     -35.325  -8.326  -2.666  0.00  0.00    +0.000 A 
ATOM      4  C   UNL     1     -35.827  -7.178  -3.269  0.00  0.00    +0.000 A 
ATOM      5  C   UNL     1     -37.173  -6.888  -3.292  0.00  0.00    +0.000 A 
ATOM      6  C   UNL     1     -38.036  -7.869  -2.859  0.00  0.00    +0.000 A 
ATOM      7  C   UNL     1     -37.315  -5.606  -3.955  0.00  0.00    +0.000 C 
ATOM      8  O   UNL     1     -38.360  -4.933  -3.902  0.00  0.00    +0.000 OA
ATOM      9  N   UNL     1     -36.020  -5.050  -4.123  0.00  0.00    +0.000 N 
ATOM     10  C   UNL     1     -35.150  -6.193  -4.126  0.00  0.00    +0.000 C 
ATOM     11  C   UNL     1     -33.895  -6.321  -4.564  0.00  0.00    +0.000 C 
ATOM     12  C   UNL     1     -32.991  -5.228  -4.932  0.00  0.00    +0.000 A 
ATOM     13  C   UNL     1     -33.373  -3.909  -5.140  0.00  0.00    +0.000 A 
ATOM     14  C   UNL     1     -32.334  -3.034  -5.402  0.00  0.00    +0.000 A 
ATOM     15  C   UNL     1     -31.031  -3.454  -5.539  0.00  0.00    +0.000 A 
ATOM     16  C   UNL     1     -30.690  -4.743  -5.152  0.00  0.00    +0.000 A 
ATOM     17  C   UNL     1     -31.683  -5.617  -4.760  0.00  0.00    +0.000 A 
ATOM     18  O   UNL     1     -29.383  -5.020  -5.489  0.00  0.00    +0.000 OA
ATOM     19  C   UNL     1     -28.777  -3.804  -5.907  0.00  0.00    +0.000 C 
ATOM     20  O   UNL     1     -29.804  -2.827  -5.773  0.00  0.00    +0.000 OA
ATOM     21  C   UNL     1     -34.586  -3.256  -4.561  0.00  0.00    +0.000 C 
ATOM     22  C   UNL     1     -35.846  -4.030  -5.350  0.00  0.00    +0.000 C 
ENDROOT
BRANCH  22  23
ATOM     23  N   UNL     1     -36.964  -3.038  -4.770  0.00  0.00    +0.000 NA
ATOM     24  C   UNL     1     -37.273  -2.379  -6.048  0.00  0.00    +0.000 C 
ATOM     25  C   UNL     1     -36.287  -2.018  -4.037  0.00  0.00    +0.000 C 
ENDBRANCH  22  23
BRANCH   1  27
ATOM     26  C   UNL     1     -38.460 -10.591  -1.633  0.00  0.00    +0.000 C 
ATOM     27  O   UNL     1     -38.390 -10.038  -1.881  0.00  0.00    +0.000 OA
ENDBRANCH   1  27
BRANCH   6  28
ATOM     28  O   UNL     1     -39.382  -7.573  -2.825  0.00  0.00    +0.000 OA
ATOM     29  C   UNL     1     -39.940  -7.013  -1.641  0.00  0.00    +0.000 C 
ENDBRANCH   6  28
BRANCH  17  30
ATOM     30  O   UNL     1     -31.323  -6.679  -3.926  0.00  0.00    +0.000 OA
ATOM     31  C   UNL     1     -30.741  -6.469  -2.672  0.00  0.00    +0.000 C 
ENDBRANCH  17  30
TORSDOF 4
ENDMDL
MODEL 3
REMARK VINA RESULT:      -6.3     29.214     31.437
REMARK  Name = 
REMARK  4 active torsions:
REMARK  status: ('A' for Active; 'I' for Inactive)
REMARK    1  A    between atoms: O_2  and  C_3
REMARK    2  A    between atoms: C_8  and  O_9
REMARK    3  A    between atoms: C_21  and  O_22
REMARK    4  A    between atoms: C_28  and  N_29
REMARK                            x       y       z     vdW  Elec       q    Type
REMARK                         _______ _______ _______ _____ _____    ______ ____
ROOT
ATOM      1  C   UNL     1      -0.057  -6.636 -14.094  0.00  0.00    +0.000 A 
ATOM      2  C   UNL     1      -0.104  -5.309 -14.493  0.00  0.00    +0.000 A 
ATOM      3  C   UNL     1       0.031  -4.354 -13.521  0.00  0.00    +0.000 A 
ATOM      4  C   UNL     1      -0.089  -4.731 -12.188  0.00  0.00    +0.000 A 
ATOM      5  C   UNL     1       0.002  -6.045 -11.783  0.00  0.00    +0.000 A 
ATOM      6  C   UNL     1       0.031  -7.006 -12.768  0.00  0.00    +0.000 A 
ATOM      7  C   UNL     1      -0.123  -6.048 -10.339  0.00  0.00    +0.000 C 
ATOM      8  O   UNL     1       0.184  -7.031  -9.640  0.00  0.00    +0.000 OA
ATOM      9  N   UNL     1      -0.070  -4.704  -9.887  0.00  0.00    +0.000 N 
ATOM     10  C   UNL     1      -0.509  -3.939 -11.022  0.00  0.00    +0.000 C 
ATOM     11  C   UNL     1      -0.964  -2.687 -11.093  0.00  0.00    +0.000 C 
ATOM     12  C   UNL     1      -0.890  -1.677 -10.034  0.00  0.00    +0.000 A 
ATOM     13  C   UNL     1      -0.581  -1.932  -8.705  0.00  0.00    +0.000 A 
ATOM     14  C   UNL     1      -0.492  -0.811  -7.899  0.00  0.00    +0.000 A 
ATOM     15  C   UNL     1      -0.780   0.454  -8.359  0.00  0.00    +0.000 A 
ATOM     16  C   UNL     1      -0.914   0.665  -9.725  0.00  0.00    +0.000 A 
ATOM     17  C   UNL     1      -0.882  -0.415 -10.582  0.00  0.00    +0.000 A 
ATOM     18  O   UNL     1      -1.332   1.953  -9.977  0.00  0.00    +0.000 OA
ATOM     19  C   UNL     1      -1.258   2.679  -8.757  0.00  0.00    +0.000 C 
ATOM     20  O   UNL     1      -0.761   1.739  -7.810  0.00  0.00    +0.000 OA
ATOM     21  C   UNL     1       0.205  -3.101  -8.206  0.00  0.00    +0.000 C 
ATOM     22  C   UNL     1      -0.816  -4.397  -8.500  0.00  0.00    +0.000 C 
ENDROOT
BRANCH  22  23
ATOM     23  N   UNL     1       0.099  -5.442  -7.700  0.00  0.00    +0.000 NA
ATOM     24  C   UNL     1      -0.896  -5.770  -6.667  0.00  0.00    +0.000 C 
ATOM     25  C   UNL     1       1.073  -4.687  -6.981  0.00  0.00    +0.000 C 
ENDBRANCH  22  23
BRANCH   1  27
ATOM     26  C   UNL     1       0.242  -7.707 -15.685  0.00  0.00    +0.000 C 
ATOM     27  O   UNL     1       0.111  -7.585 -15.102  0.00  0.00    +0.000 OA
ENDBRANCH   1  27
BRANCH   6  28
ATOM     28  O   UNL     1       0.177  -8.321 -12.380  0.00  0.00    +0.000 OA
ATOM     29  C   UNL     1      -0.979  -9.142 -12.264  0.00  0.00    +0.000 C 
ENDBRANCH   6  28
BRANCH  17  30
ATOM     30  O   UNL     1      -0.514  -0.180 -11.911  0.00  0.00    +0.000 OA
ATOM     31  C   UNL     1       0.740   0.335 -12.250  0.00  0.00    +0.000 C 
ENDBRANCH  17  30
TORSDOF 4
ENDMDL
MODEL 4
REMARK VINA RESULT:      -6.1     30.654     36.080
REMARK  Name = 
REMARK  4 active torsions:
REMARK  status: ('A' for Active; 'I' for Inactive)
REMARK    1  A    between atoms: O_2  and  C_3
REMARK    2  A    between atoms: C_8  and  O_9
REMARK    3  A    between atoms: C_21  and  O_22
REMARK    4  A    between atoms: C_28  and  N_29
REMARK                            x       y       z     vdW  Elec       q    Type
REMARK                         _______ _______ _______ _____ _____    ______ ____
ROOT
ATOM      1  C   UNL     1     -13.185  17.491 -19.672  0.00  0.00    +0.000 A 
ATOM      2  C   UNL     1     -11.860  17.742 -19.993  0.00  0.00    +0.000 A 
ATOM      3  C   UNL     1     -11.616  18.596 -21.035  0.00  0.00    +0.000 A 
ATOM      4  C   UNL     1     -12.660  18.927 -21.891  0.00  0.00    +0.000 A 
ATOM      5  C   UNL     1     -13.980  18.720 -21.556  0.00  0.00    +0.000 A 
ATOM      6  C   UNL     1     -14.233  17.997 -20.413  0.00  0.00    +0.000 A 
ATOM      7  C   UNL     1     -14.776  19.223 -22.658  0.00  0.00    +0.000 C 
ATOM      8  O   UNL     1     -15.999  19.436 -22.563  0.00  0.00    +0.000 OA
ATOM      9  N   UNL     1     -13.915  19.923 -23.543  0.00  0.00    +0.000 N 
ATOM     10  C   UNL     1     -12.623  19.340 -23.302  0.00  0.00    +0.000 C 
ATOM     11  C   UNL     1     -11.516  19.361 -24.047  0.00  0.00    +0.000 C 
ATOM     12  C   UNL     1     -11.270  20.219 -25.209  0.00  0.00    +0.000 A 
ATOM     13  C   UNL     1     -12.238  20.951 -25.883  0.00  0.00    +0.000 A 
ATOM     14  C   UNL     1     -11.760  21.753 -26.904  0.00  0.00    +0.000 A 
ATOM     15  C   UNL     1     -10.438  21.754 -27.285  0.00  0.00    +0.000 A 
ATOM     16  C   UNL     1      -9.497  21.139 -26.470  0.00  0.00    +0.000 A 
ATOM     17  C   UNL     1      -9.920  20.431 -25.364  0.00  0.00    +0.000 A 
ATOM     18  O   UNL     1      -8.262  21.127 -27.080  0.00  0.00    +0.000 OA
ATOM     19  C   UNL     1      -8.341  21.955 -28.233  0.00  0.00    +0.000 C 
ATOM     20  O   UNL     1      -9.677  22.446 -28.231  0.00  0.00    +0.000 OA
ATOM     21  C   UNL     1     -13.534  21.416 -25.302  0.00  0.00    +0.000 C 
ATOM     22  C   UNL     1     -14.382  19.988 -25.077  0.00  0.00    +0.000 C 
ENDROOT
BRANCH  22  23
ATOM     23  N   UNL     1     -15.751  20.732 -24.697  0.00  0.00    +0.000 NA
ATOM     24  C   UNL     1     -16.450  20.435 -25.956  0.00  0.00    +0.000 C 
ATOM     25  C   UNL     1     -15.508  22.135 -24.785  0.00  0.00    +0.000 C 
ENDBRANCH  22  23
BRANCH   1  27
ATOM     26  C   UNL     1     -13.237  16.765 -17.872  0.00  0.00    +0.000 C 
ATOM     27  O   UNL     1     -13.424  16.880 -18.442  0.00  0.00    +0.000 OA
ENDBRANCH   1  27
BRANCH   6  28
ATOM     28  O   UNL     1     -15.548  17.828 -20.035  0.00  0.00    +0.000 OA
ATOM     29  C   UNL     1     -16.148  18.783 -19.166  0.00  0.00    +0.000 C 
ENDBRANCH   6  28
BRANCH  17  30
ATOM     30  O   UNL     1      -9.010  20.260 -24.315  0.00  0.00    +0.000 OA
ATOM     31  C   UNL     1      -8.440  21.347 -23.648  0.00  0.00    +0.000 C 
ENDBRANCH  17  30
TORSDOF 4
ENDMDL
MODEL 5
REMARK VINA RESULT:      -6.1      5.442      8.730
REMARK  Name = 
REMARK  4 active torsions:
REMARK  status: ('A' for Active; 'I' for Inactive)
REMARK    1  A    between atoms: O_2  and  C_3
REMARK    2  A    between atoms: C_8  and  O_9
REMARK    3  A    between atoms: C_21  and  O_22
REMARK    4  A    between atoms: C_28  and  N_29
REMARK                            x       y       z     vdW  Elec       q    Type
REMARK                         _______ _______ _______ _____ _____    ______ ____
ROOT
ATOM      1  C   UNL     1     -24.709   7.918  11.352  0.00  0.00    +0.000 A 
ATOM      2  C   UNL     1     -25.301   6.670  11.458  0.00  0.00    +0.000 A 
ATOM      3  C   UNL     1     -25.693   6.058  10.298  0.00  0.00    +0.000 A 
ATOM      4  C   UNL     1     -25.757   6.811   9.131  0.00  0.00    +0.000 A 
ATOM      5  C   UNL     1     -25.132   8.032   9.007  0.00  0.00    +0.000 A 
ATOM      6  C   UNL     1     -24.589   8.579  10.147  0.00  0.00    +0.000 A 
ATOM      7  C   UNL     1     -25.376   8.494   7.654  0.00  0.00    +0.000 C 
ATOM      8  O   UNL     1     -24.732   9.423   7.134  0.00  0.00    +0.000 OA
ATOM      9  N   UNL     1     -25.965   7.430   6.923  0.00  0.00    +0.000 N 
ATOM     10  C   UNL     1     -26.590   6.620   7.934  0.00  0.00    +0.000 C 
ATOM     11  C   UNL     1     -27.545   5.693   7.827  0.00  0.00    +0.000 C 
ATOM     12  C   UNL     1     -28.024   5.083   6.584  0.00  0.00    +0.000 A 
ATOM     13  C   UNL     1     -27.758   5.556   5.306  0.00  0.00    +0.000 A 
ATOM     14  C   UNL     1     -28.251   4.772   4.278  0.00  0.00    +0.000 A 
ATOM     15  C   UNL     1     -29.025   3.657   4.505  0.00  0.00    +0.000 A 
ATOM     16  C   UNL     1     -29.111   3.141   5.791  0.00  0.00    +0.000 A 
ATOM     17  C   UNL     1     -28.524   3.827   6.835  0.00  0.00    +0.000 A 
ATOM     18  O   UNL     1     -30.031   2.117   5.843  0.00  0.00    +0.000 OA
ATOM     19  C   UNL     1     -30.399   1.800   4.507  0.00  0.00    +0.000 C 
ATOM     20  O   UNL     1     -29.628   2.685   3.701  0.00  0.00    +0.000 OA
ATOM     21  C   UNL     1     -26.586   6.398   4.919  0.00  0.00    +0.000 C 
ATOM     22  C   UNL     1     -26.896   7.854   5.687  0.00  0.00    +0.000 C 
ENDROOT
BRANCH  22  23
ATOM     23  N   UNL     1     -25.691   8.621   4.959  0.00  0.00    +0.000 NA
ATOM     24  C   UNL     1     -26.531   9.569   4.211  0.00  0.00    +0.000 C 
ATOM     25  C   UNL     1     -25.194   7.756   3.939  0.00  0.00    +0.000 C 
ENDBRANCH  22  23
BRANCH   1  27
ATOM     26  C   UNL     1     -24.074   8.580  13.063  0.00  0.00    +0.000 C 
ATOM     27  O   UNL     1     -24.045   8.392  12.483  0.00  0.00    +0.000 OA
ENDBRANCH   1  27
BRANCH   6  28
ATOM     28  O   UNL     1     -23.912   9.775  10.029  0.00  0.00    +0.000 OA
ATOM     29  C   UNL     1     -24.607  10.992  10.274  0.00  0.00    +0.000 C 
ENDBRANCH   6  28
BRANCH  17  30
ATOM     30  O   UNL     1     -28.178   3.099   7.978  0.00  0.00    +0.000 OA
ATOM     31  C   UNL     1     -27.533   1.861   7.898  0.00  0.00    +0.000 C 
ENDBRANCH  17  30
TORSDOF 4
ENDMDL
MODEL 6
REMARK VINA RESULT:      -6.0     13.935     15.167
REMARK  Name = 
REMARK  4 active torsions:
REMARK  status: ('A' for Active; 'I' for Inactive)
REMARK    1  A    between atoms: O_2  and  C_3
REMARK    2  A    between atoms: C_8  and  O_9
REMARK    3  A    between atoms: C_21  and  O_22
REMARK    4  A    between atoms: C_28  and  N_29
REMARK                            x       y       z     vdW  Elec       q    Type
REMARK                         _______ _______ _______ _____ _____    ______ ____
ROOT
ATOM      1  C   UNL     1     -31.478  -4.139  -5.511  0.00  0.00    +0.000 A 
ATOM      2  C   UNL     1     -32.005  -2.872  -5.707  0.00  0.00    +0.000 A 
ATOM      3  C   UNL     1     -33.364  -2.767  -5.830  0.00  0.00    +0.000 A 
ATOM      4  C   UNL     1     -34.110  -3.920  -6.049  0.00  0.00    +0.000 A 
ATOM      5  C   UNL     1     -33.603  -5.180  -5.812  0.00  0.00    +0.000 A 
ATOM      6  C   UNL     1     -32.261  -5.275  -5.526  0.00  0.00    +0.000 A 
ATOM      7  C   UNL     1     -34.667  -6.121  -6.105  0.00  0.00    +0.000 C 
ATOM      8  O   UNL     1     -34.632  -7.310  -5.740  0.00  0.00    +0.000 OA
ATOM      9  N   UNL     1     -35.865  -5.387  -6.304  0.00  0.00    +0.000 N 
ATOM     10  C   UNL     1     -35.410  -4.087  -6.715  0.00  0.00    +0.000 C 
ATOM     11  C   UNL     1     -36.061  -3.103  -7.340  0.00  0.00    +0.000 C 
ATOM     12  C   UNL     1     -37.510  -3.015  -7.541  0.00  0.00    +0.000 A 
ATOM     13  C   UNL     1     -38.408  -4.057  -7.356  0.00  0.00    +0.000 A 
ATOM     14  C   UNL     1     -39.739  -3.720  -7.530  0.00  0.00    +0.000 A 
ATOM     15  C   UNL     1     -40.136  -2.470  -7.946  0.00  0.00    +0.000 A 
ATOM     16  C   UNL     1     -39.215  -1.431  -7.947  0.00  0.00    +0.000 A 
ATOM     17  C   UNL     1     -37.893  -1.699  -7.655  0.00  0.00    +0.000 A 
ATOM     18  O   UNL     1     -39.758  -0.302  -8.519  0.00  0.00    +0.000 OA
ATOM     19  C   UNL     1     -41.150  -0.534  -8.697  0.00  0.00    +0.000 C 
ATOM     20  O   UNL     1     -41.364  -1.844  -8.181  0.00  0.00    +0.000 OA
ATOM     21  C   UNL     1     -38.193  -5.241  -6.470  0.00  0.00    +0.000 C 
ATOM     22  C   UNL     1     -36.966  -6.077  -7.246  0.00  0.00    +0.000 C 
ENDROOT
BRANCH  22  23
ATOM     23  N   UNL     1     -37.080  -7.356  -6.287  0.00  0.00    +0.000 NA
ATOM     24  C   UNL     1     -37.652  -8.262  -7.294  0.00  0.00    +0.000 C 
ATOM     25  C   UNL     1     -38.176  -7.125  -5.402  0.00  0.00    +0.000 C 
ENDBRANCH  22  23
BRANCH   1  27
ATOM     26  C   UNL     1     -29.583  -3.987  -5.122  0.00  0.00    +0.000 C 
ATOM     27  O   UNL     1     -30.151  -4.205  -5.087  0.00  0.00    +0.000 OA
ENDBRANCH   1  27
BRANCH   6  28
ATOM     28  O   UNL     1     -31.751  -6.522  -5.233  0.00  0.00    +0.000 OA
ATOM     29  C   UNL     1     -31.745  -6.969  -3.882  0.00  0.00    +0.000 C 
ENDBRANCH   6  28
BRANCH  17  30
ATOM     30  O   UNL     1     -37.108  -0.647  -7.173  0.00  0.00    +0.000 OA
ATOM     31  C   UNL     1     -37.436   0.043  -6.003  0.00  0.00    +0.000 C 
ENDBRANCH  17  30
TORSDOF 4
ENDMDL
MODEL 7
REMARK VINA RESULT:      -5.9      4.988      8.224
REMARK  Name = 
REMARK  4 active torsions:
REMARK  status: ('A' for Active; 'I' for Inactive)
REMARK    1  A    between atoms: O_2  and  C_3
REMARK    2  A    between atoms: C_8  and  O_9
REMARK    3  A    between atoms: C_21  and  O_22
REMARK    4  A    between atoms: C_28  and  N_29
REMARK                            x       y       z     vdW  Elec       q    Type
REMARK                         _______ _______ _______ _____ _____    ______ ____
ROOT
ATOM      1  C   UNL     1     -29.448  -6.473   8.554  0.00  0.00    +0.000 A 
ATOM      2  C   UNL     1     -28.286  -6.725   9.266  0.00  0.00    +0.000 A 
ATOM      3  C   UNL     1     -27.283  -5.798   9.182  0.00  0.00    +0.000 A 
ATOM      4  C   UNL     1     -27.345  -4.829   8.187  0.00  0.00    +0.000 A 
ATOM      5  C   UNL     1     -28.510  -4.545   7.508  0.00  0.00    +0.000 A 
ATOM      6  C   UNL     1     -29.580  -5.385   7.716  0.00  0.00    +0.000 A 
ATOM      7  C   UNL     1     -28.208  -3.463   6.591  0.00  0.00    +0.000 C 
ATOM      8  O   UNL     1     -29.093  -2.791   6.030  0.00  0.00    +0.000 OA
ATOM      9  N   UNL     1     -26.912  -2.972   6.897  0.00  0.00    +0.000 N 
ATOM     10  C   UNL     1     -26.260  -4.088   7.527  0.00  0.00    +0.000 C 
ATOM     11  C   UNL     1     -24.962  -4.326   7.728  0.00  0.00    +0.000 C 
ATOM     12  C   UNL     1     -23.870  -3.361   7.571  0.00  0.00    +0.000 A 
ATOM     13  C   UNL     1     -23.974  -2.131   6.935  0.00  0.00    +0.000 A 
ATOM     14  C   UNL     1     -22.831  -1.352   6.977  0.00  0.00    +0.000 A 
ATOM     15  C   UNL     1     -21.652  -1.801   7.526  0.00  0.00    +0.000 A 
ATOM     16  C   UNL     1     -21.657  -2.959   8.292  0.00  0.00    +0.000 A 
ATOM     17  C   UNL     1     -22.814  -3.704   8.383  0.00  0.00    +0.000 A 
ATOM     18  O   UNL     1     -20.372  -3.318   8.637  0.00  0.00    +0.000 OA
ATOM     19  C   UNL     1     -19.512  -2.244   8.278  0.00  0.00    +0.000 C 
ATOM     20  O   UNL     1     -20.380  -1.258   7.729  0.00  0.00    +0.000 OA
ATOM     21  C   UNL     1     -25.235  -1.348   6.762  0.00  0.00    +0.000 C 
ATOM     22  C   UNL     1     -26.116  -2.284   5.686  0.00  0.00    +0.000 C 
ENDROOT
BRANCH  22  23
ATOM     23  N   UNL     1     -27.255  -1.174   5.482  0.00  0.00    +0.000 NA
ATOM     24  C   UNL     1     -26.784  -0.699   4.171  0.00  0.00    +0.000 C 
ATOM     25  C   UNL     1     -26.944  -0.085   6.349  0.00  0.00    +0.000 C 
ENDBRANCH  22  23
BRANCH   1  27
ATOM     26  C   UNL     1     -30.785  -7.752   9.142  0.00  0.00    +0.000 C 
ATOM     27  O   UNL     1     -30.561  -7.248   8.880  0.00  0.00    +0.000 OA
ENDBRANCH   1  27
BRANCH   6  28
ATOM     28  O   UNL     1     -30.769  -5.082   7.086  0.00  0.00    +0.000 OA
ATOM     29  C   UNL     1     -31.696  -4.219   7.735  0.00  0.00    +0.000 C 
ENDBRANCH   6  28
BRANCH  17  30
ATOM     30  O   UNL     1     -22.968  -4.533   9.499  0.00  0.00    +0.000 OA
ATOM     31  C   UNL     1     -22.418  -5.817   9.546  0.00  0.00    +0.000 C 
ENDBRANCH  17  30
TORSDOF 4
ENDMDL
MODEL 8
REMARK VINA RESULT:      -5.9     31.578     37.107
REMARK  Name = 
REMARK  4 active torsions:
REMARK  status: ('A' for Active; 'I' for Inactive)
REMARK    1  A    between atoms: O_2  and  C_3
REMARK    2  A    between atoms: C_8  and  O_9
REMARK    3  A    between atoms: C_21  and  O_22
REMARK    4  A    between atoms: C_28  and  N_29
REMARK                            x       y       z     vdW  Elec       q    Type
REMARK                         _______ _______ _______ _____ _____    ______ ____
ROOT
ATOM      1  C   UNL     1     -12.203  17.675 -20.030  0.00  0.00    +0.000 A 
ATOM      2  C   UNL     1     -11.028  18.368 -19.785  0.00  0.00    +0.000 A 
ATOM      3  C   UNL     1     -10.661  19.326 -20.692  0.00  0.00    +0.000 A 
ATOM      4  C   UNL     1     -11.293  19.357 -21.929  0.00  0.00    +0.000 A 
ATOM      5  C   UNL     1     -12.485  18.706 -22.163  0.00  0.00    +0.000 A 
ATOM      6  C   UNL     1     -12.944  17.860 -21.179  0.00  0.00    +0.000 A 
ATOM      7  C   UNL     1     -12.860  18.997 -23.533  0.00  0.00    +0.000 C 
ATOM      8  O   UNL     1     -14.005  18.791 -23.975  0.00  0.00    +0.000 OA
ATOM      9  N   UNL     1     -11.987  20.001 -24.027  0.00  0.00    +0.000 N 
ATOM     10  C   UNL     1     -10.805  19.858 -23.223  0.00  0.00    +0.000 C 
ATOM     11  C   UNL     1      -9.561  20.293 -23.434  0.00  0.00    +0.000 C 
ATOM     12  C   UNL     1      -9.143  21.264 -24.449  0.00  0.00    +0.000 A 
ATOM     13  C   UNL     1      -9.919  21.684 -25.521  0.00  0.00    +0.000 A 
ATOM     14  C   UNL     1      -9.347  22.668 -26.307  0.00  0.00    +0.000 A 
ATOM     15  C   UNL     1      -8.067  23.130 -26.098  0.00  0.00    +0.000 A 
ATOM     16  C   UNL     1      -7.412  22.801 -24.919  0.00  0.00    +0.000 A 
ATOM     17  C   UNL     1      -8.004  21.917 -24.040  0.00  0.00    +0.000 A 
ATOM     18  O   UNL     1      -6.106  23.237 -24.952  0.00  0.00    +0.000 OA
ATOM     19  C   UNL     1      -5.958  24.072 -26.093  0.00  0.00    +0.000 C 
ATOM     20  O   UNL     1      -7.251  24.098 -26.689  0.00  0.00    +0.000 OA
ATOM     21  C   UNL     1     -11.413  21.657 -25.575  0.00  0.00    +0.000 C 
ATOM     22  C   UNL     1     -11.760  20.019 -25.615  0.00  0.00    +0.000 C 
ENDROOT
BRANCH  22  23
ATOM     23  N   UNL     1     -13.321  20.244 -25.902  0.00  0.00    +0.000 NA
ATOM     24  C   UNL     1     -13.312  19.708 -27.272  0.00  0.00    +0.000 C 
ATOM     25  C   UNL     1     -13.516  21.643 -26.106  0.00  0.00    +0.000 C 
ENDBRANCH  22  23
BRANCH   1  27
ATOM     26  C   UNL     1     -12.884  16.908 -18.382  0.00  0.00    +0.000 C 
ATOM     27  O   UNL     1     -12.723  16.933 -18.970  0.00  0.00    +0.000 OA
ENDBRANCH   1  27
BRANCH   6  28
ATOM     28  O   UNL     1     -14.162  17.245 -21.375  0.00  0.00    +0.000 OA
ATOM     29  C   UNL     1     -15.352  17.922 -20.987  0.00  0.00    +0.000 C 
ENDBRANCH   6  28
BRANCH  17  30
ATOM     30  O   UNL     1      -7.619  21.979 -22.697  0.00  0.00    +0.000 OA
ATOM     31  C   UNL     1      -7.823  23.124 -21.923  0.00  0.00    +0.000 C 
ENDBRANCH  17  30
TORSDOF 4
ENDMDL
MODEL 9
REMARK VINA RESULT:      -5.8     30.775     34.943
REMARK  Name = 
REMARK  4 active torsions:
REMARK  status: ('A' for Active; 'I' for Inactive)
REMARK    1  A    between atoms: O_2  and  C_3
REMARK    2  A    between atoms: C_8  and  O_9
REMARK    3  A    between atoms: C_21  and  O_22
REMARK    4  A    between atoms: C_28  and  N_29
REMARK                            x       y       z     vdW  Elec       q    Type
REMARK                         _______ _______ _______ _____ _____    ______ ____
ROOT
ATOM      1  C   UNL     1     -17.000  19.892 -24.612  0.00  0.00    +0.000 A 
ATOM      2  C   UNL     1     -15.872  20.428 -25.213  0.00  0.00    +0.000 A 
ATOM      3  C   UNL     1     -14.665  20.187 -24.613  0.00  0.00    +0.000 A 
ATOM      4  C   UNL     1     -14.647  19.693 -23.313  0.00  0.00    +0.000 A 
ATOM      5  C   UNL     1     -15.755  19.120 -22.729  0.00  0.00    +0.000 A 
ATOM      6  C   UNL     1     -16.947  19.217 -23.410  0.00  0.00    +0.000 A 
ATOM      7  C   UNL     1     -15.353  18.685 -21.405  0.00  0.00    +0.000 C 
ATOM      8  O   UNL     1     -16.030  17.894 -20.723  0.00  0.00    +0.000 OA
ATOM      9  N   UNL     1     -13.944  18.814 -21.306  0.00  0.00    +0.000 N 
ATOM     10  C   UNL     1     -13.621  19.831 -22.269  0.00  0.00    +0.000 C 
ATOM     11  C   UNL     1     -12.528  20.587 -22.391  0.00  0.00    +0.000 C 
ATOM     12  C   UNL     1     -11.252  20.383 -21.699  0.00  0.00    +0.000 A 
ATOM     13  C   UNL     1     -11.057  19.539 -20.613  0.00  0.00    +0.000 A 
ATOM     14  C   UNL     1      -9.748  19.446 -20.173  0.00  0.00    +0.000 A 
ATOM     15  C   UNL     1      -8.732  20.203 -20.711  0.00  0.00    +0.000 A 
ATOM     16  C   UNL     1      -8.954  20.892 -21.896  0.00  0.00    +0.000 A 
ATOM     17  C   UNL     1     -10.221  20.908 -22.442  0.00  0.00    +0.000 A 
ATOM     18  O   UNL     1      -7.875  21.693 -22.200  0.00  0.00    +0.000 OA
ATOM     19  C   UNL     1      -6.820  21.354 -21.309  0.00  0.00    +0.000 C 
ATOM     20  O   UNL     1      -7.355  20.311 -20.500  0.00  0.00    +0.000 OA
ATOM     21  C   UNL     1     -11.896  18.350 -20.277  0.00  0.00    +0.000 C 
ATOM     22  C   UNL     1     -13.359  19.034 -19.828  0.00  0.00    +0.000 C 
ENDROOT
BRANCH  22  23
ATOM     23  N   UNL     1     -13.973  17.647 -19.308  0.00  0.00    +0.000 NA
ATOM     24  C   UNL     1     -14.374  18.137 -17.980  0.00  0.00    +0.000 C 
ATOM     25  C   UNL     1     -12.877  16.782 -19.014  0.00  0.00    +0.000 C 
ENDBRANCH  22  23
BRANCH   1  27
ATOM     26  C   UNL     1     -18.455  20.040 -25.888  0.00  0.00    +0.000 C 
ATOM     27  O   UNL     1     -18.167  19.877 -25.375  0.00  0.00    +0.000 OA
ENDBRANCH   1  27
BRANCH   6  28
ATOM     28  O   UNL     1     -18.053  18.601 -22.864  0.00  0.00    +0.000 OA
ATOM     29  C   UNL     1     -18.952  19.366 -22.069  0.00  0.00    +0.000 C 
ENDBRANCH   6  28
BRANCH  17  30
ATOM     30  O   UNL     1     -10.333  21.144 -23.816  0.00  0.00    +0.000 OA
ATOM     31  C   UNL     1      -9.763  20.288 -24.761  0.00  0.00    +0.000 C 
ENDBRANCH  17  30
TORSDOF 4
ENDMDL
MODEL 10
REMARK VINA RESULT:      -5.7     31.204     37.373
REMARK  Name = 
REMARK  4 active torsions:
REMARK  status: ('A' for Active; 'I' for Inactive)
REMARK    1  A    between atoms: O_2  and  C_3
REMARK    2  A    between atoms: C_8  and  O_9
REMARK    3  A    between atoms: C_21  and  O_22
REMARK    4  A    between atoms: C_28  and  N_29
REMARK                            x       y       z     vdW  Elec       q    Type
REMARK                         _______ _______ _______ _____ _____    ______ ____
ROOT
ATOM      1  C   UNL     1     -12.869  20.633 -28.386  0.00  0.00    +0.000 A 
ATOM      2  C   UNL     1     -13.789  19.860 -27.697  0.00  0.00    +0.000 A 
ATOM      3  C   UNL     1     -13.669  19.804 -26.334  0.00  0.00    +0.000 A 
ATOM      4  C   UNL     1     -12.496  20.260 -25.744  0.00  0.00    +0.000 A 
ATOM      5  C   UNL     1     -11.601  21.066 -26.413  0.00  0.00    +0.000 A 
ATOM      6  C   UNL     1     -11.811  21.258 -27.759  0.00  0.00    +0.000 A 
ATOM      7  C   UNL     1     -10.536  21.375 -25.478  0.00  0.00    +0.000 C 
ATOM      8  O   UNL     1      -9.716  22.291 -25.672  0.00  0.00    +0.000 OA
ATOM      9  N   UNL     1     -10.929  20.920 -24.193  0.00  0.00    +0.000 N 
ATOM     10  C   UNL     1     -11.872  19.872 -24.470  0.00  0.00    +0.000 C 
ATOM     11  C   UNL     1     -12.317  18.884 -23.690  0.00  0.00    +0.000 C 
ATOM     12  C   UNL     1     -12.133  18.776 -22.240  0.00  0.00    +0.000 A 
ATOM     13  C   UNL     1     -11.246  19.534 -21.487  0.00  0.00    +0.000 A 
ATOM     14  C   UNL     1     -11.301  19.314 -20.122  0.00  0.00    +0.000 A 
ATOM     15  C   UNL     1     -12.107  18.350 -19.561  0.00  0.00    +0.000 A 
ATOM     16  C   UNL     1     -13.089  17.750 -20.339  0.00  0.00    +0.000 A 
ATOM     17  C   UNL     1     -13.153  18.037 -21.687  0.00  0.00    +0.000 A 
ATOM     18  O   UNL     1     -13.696  16.726 -19.647  0.00  0.00    +0.000 OA
ATOM     19  C   UNL     1     -13.258  16.797 -18.296  0.00  0.00    +0.000 C 
ATOM     20  O   UNL     1     -12.386  17.922 -18.260  0.00  0.00    +0.000 OA
ATOM     21  C   UNL     1     -10.719  20.880 -21.864  0.00  0.00    +0.000 C 
ATOM     22  C   UNL     1      -9.739  20.548 -23.183  0.00  0.00    +0.000 C 
ENDROOT
BRANCH  22  23
ATOM     23  N   UNL     1      -9.133  22.031 -23.246  0.00  0.00    +0.000 NA
ATOM     24  C   UNL     1      -7.800  21.682 -22.732  0.00  0.00    +0.000 C 
ATOM     25  C   UNL     1      -9.710  22.770 -22.171  0.00  0.00    +0.000 C 
ENDBRANCH  22  23
BRANCH   1  27
ATOM     26  C   UNL     1     -13.276  20.731 -30.282  0.00  0.00    +0.000 C 
ATOM     27  O   UNL     1     -13.174  20.930 -29.714  0.00  0.00    +0.000 OA
ENDBRANCH   1  27
BRANCH   6  28
ATOM     28  O   UNL     1     -10.956  22.106 -28.430  0.00  0.00    +0.000 OA
ATOM     29  C   UNL     1     -11.275  23.491 -28.512  0.00  0.00    +0.000 C 
ENDBRANCH   6  28
BRANCH  17  30
ATOM     30  O   UNL     1     -14.380  17.855 -22.332  0.00  0.00    +0.000 OA
ATOM     31  C   UNL     1     -15.537  18.524 -21.922  0.00  0.00    +0.000 C 
ENDBRANCH  17  30
TORSDOF 4
ENDMDL
