MODEL 1
REMARK VINA RESULT:      -6.0      0.000      0.000
REMARK  Name = 
REMARK  5 active torsions:
REMARK  status: ('A' for Active; 'I' for Inactive)
REMARK    1  A    between atoms: O_2  and  C_3
REMARK    2  A    between atoms: C_5  and  C_6
REMARK    3  A    between atoms: C_7  and  C_8
REMARK    4  A    between atoms: C_11  and  O_12
REMARK    5  A    between atoms: C_17  and  O_18
REMARK                            x       y       z     vdW  Elec       q    Type
REMARK                         _______ _______ _______ _____ _____    ______ ____
ROOT
ATOM      1  C   UNL     1     -30.103  -4.573  -5.265  0.00  0.00    +0.000 A 
ATOM      2  C   UNL     1     -31.209  -3.951  -5.832  0.00  0.00    +0.000 A 
ATOM      3  C   UNL     1     -32.385  -3.852  -5.100  0.00  0.00    +0.000 A 
ATOM      4  C   UNL     1     -32.450  -4.428  -3.837  0.00  0.00    +0.000 A 
ATOM      5  C   UNL     1     -31.415  -5.180  -3.343  0.00  0.00    +0.000 A 
ATOM      6  C   UNL     1     -30.285  -5.299  -4.109  0.00  0.00    +0.000 A 
ATOM      7  O   UNL     1     -29.499  -6.303  -3.552  0.00  0.00    +0.000 OA
ATOM      8  C   UNL     1     -30.269  -7.015  -2.599  0.00  0.00    +0.000 C 
ATOM      9  O   UNL     1     -31.325  -6.102  -2.326  0.00  0.00    +0.000 OA
ENDROOT
BRANCH   1  11
ATOM     10  C   UNL     1     -28.009  -3.429  -4.719  0.00  0.00    +0.000 C 
ATOM     11  O   UNL     1     -28.796  -4.199  -5.594  0.00  0.00    +0.000 OA
ENDBRANCH   1  11
BRANCH   3  12
ATOM     12  C   UNL     1     -33.534  -3.362  -5.826  0.00  0.00    +0.000 C 
ATOM     13  C   UNL     1     -34.253  -2.312  -5.521  0.00  0.00    +0.000 C 
BRANCH  13  14
ATOM     14  C   UNL     1     -35.705  -2.357  -5.299  0.00  0.00    +0.000 A 
ATOM     15  C   UNL     1     -36.272  -1.695  -4.216  0.00  0.00    +0.000 A 
ATOM     16  C   UNL     1     -37.276  -2.289  -3.463  0.00  0.00    +0.000 A 
ATOM     17  C   UNL     1     -37.791  -3.529  -3.809  0.00  0.00    +0.000 A 
ATOM     18  C   UNL     1     -37.496  -3.984  -5.088  0.00  0.00    +0.000 A 
ATOM     19  O   UNL     1     -37.979  -5.247  -5.445  0.00  0.00    +0.000 OA
ATOM     20  C   UNL     1     -36.484  -3.382  -5.825  0.00  0.00    +0.000 A 
BRANCH  17  21
ATOM     21  O   UNL     1     -38.341  -4.319  -2.823  0.00  0.00    +0.000 OA
ATOM     22  C   UNL     1     -39.659  -4.172  -2.333  0.00  0.00    +0.000 C 
ENDBRANCH  17  21
ENDBRANCH  13  14
ENDBRANCH   3  12
BRANCH   4  23
ATOM     23  O   UNL     1     -33.735  -4.609  -3.323  0.00  0.00    +0.000 OA
ATOM     24  C   UNL     1     -34.498  -5.773  -3.525  0.00  0.00    +0.000 C 
ENDBRANCH   4  23
TORSDOF 5
ENDMDL
MODEL 2
REMARK VINA RESULT:      -6.0      2.532      7.262
REMARK  Name = 
REMARK  5 active torsions:
REMARK  status: ('A' for Active; 'I' for Inactive)
REMARK    1  A    between atoms: O_2  and  C_3
REMARK    2  A    between atoms: C_5  and  C_6
REMARK    3  A    between atoms: C_7  and  C_8
REMARK    4  A    between atoms: C_11  and  O_12
REMARK    5  A    between atoms: C_17  and  O_18
REMARK                            x       y       z     vdW  Elec       q    Type
REMARK                         _______ _______ _______ _____ _____    ______ ____
ROOT
ATOM      1  C   UNL     1     -36.491  -4.973  -7.772  0.00  0.00    +0.000 A 
ATOM      2  C   UNL     1     -35.588  -4.385  -6.895  0.00  0.00    +0.000 A 
ATOM      3  C   UNL     1     -35.830  -3.100  -6.426  0.00  0.00    +0.000 A 
ATOM      4  C   UNL     1     -36.943  -2.407  -6.888  0.00  0.00    +0.000 A 
ATOM      5  C   UNL     1     -37.745  -2.924  -7.874  0.00  0.00    +0.000 A 
ATOM      6  C   UNL     1     -37.452  -4.174  -8.351  0.00  0.00    +0.000 A 
ATOM      7  O   UNL     1     -38.204  -4.376  -9.503  0.00  0.00    +0.000 OA
ATOM      8  C   UNL     1     -38.759  -3.137  -9.913  0.00  0.00    +0.000 C 
ATOM      9  O   UNL     1     -38.668  -2.362  -8.725  0.00  0.00    +0.000 OA
ENDROOT
BRANCH   1  11
ATOM     10  C   UNL     1     -36.191  -7.152  -8.846  0.00  0.00    +0.000 C 
ATOM     11  O   UNL     1     -36.697  -6.356  -7.803  0.00  0.00    +0.000 OA
ENDBRANCH   1  11
BRANCH   3  12
ATOM     12  C   UNL     1     -34.756  -2.496  -5.672  0.00  0.00    +0.000 C 
ATOM     13  C   UNL     1     -33.485  -2.519  -5.980  0.00  0.00    +0.000 C 
BRANCH  13  14
ATOM     14  C   UNL     1     -32.440  -3.038  -5.085  0.00  0.00    +0.000 A 
ATOM     15  C   UNL     1     -31.224  -3.472  -5.600  0.00  0.00    +0.000 A 
ATOM     16  C   UNL     1     -30.623  -4.630  -5.127  0.00  0.00    +0.000 A 
ATOM     17  C   UNL     1     -31.179  -5.349  -4.081  0.00  0.00    +0.000 A 
ATOM     18  C   UNL     1     -32.156  -4.700  -3.337  0.00  0.00    +0.000 A 
ATOM     19  O   UNL     1     -32.754  -5.420  -2.298  0.00  0.00    +0.000 OA
ATOM     20  C   UNL     1     -32.753  -3.545  -3.829  0.00  0.00    +0.000 A 
BRANCH  17  21
ATOM     21  O   UNL     1     -30.918  -6.699  -3.989  0.00  0.00    +0.000 OA
ATOM     22  C   UNL     1     -29.870  -7.253  -3.217  0.00  0.00    +0.000 C 
ENDBRANCH  17  21
ENDBRANCH  13  14
ENDBRANCH   3  12
BRANCH   4  23
ATOM     23  O   UNL     1     -36.928  -1.029  -6.668  0.00  0.00    +0.000 OA
ATOM     24  C   UNL     1     -37.832  -0.366  -5.819  0.00  0.00    +0.000 C 
ENDBRANCH   4  23
TORSDOF 5
ENDMDL
MODEL 3
REMARK VINA RESULT:      -5.7     33.235     36.996
REMARK  Name = 
REMARK  5 active torsions:
REMARK  status: ('A' for Active; 'I' for Inactive)
REMARK    1  A    between atoms: O_2  and  C_3
REMARK    2  A    between atoms: C_5  and  C_6
REMARK    3  A    between atoms: C_7  and  C_8
REMARK    4  A    between atoms: C_11  and  O_12
REMARK    5  A    between atoms: C_17  and  O_18
REMARK                            x       y       z     vdW  Elec       q    Type
REMARK                         _______ _______ _______ _____ _____    ______ ____
ROOT
ATOM      1  C   UNL     1     -10.221  20.195 -25.385  0.00  0.00    +0.000 A 
ATOM      2  C   UNL     1     -10.156  20.251 -23.998  0.00  0.00    +0.000 A 
ATOM      3  C   UNL     1     -11.226  19.782 -23.246  0.00  0.00    +0.000 A 
ATOM      4  C   UNL     1     -12.362  19.317 -23.898  0.00  0.00    +0.000 A 
ATOM      5  C   UNL     1     -12.491  19.411 -25.260  0.00  0.00    +0.000 A 
ATOM      6  C   UNL     1     -11.437  19.923 -25.971  0.00  0.00    +0.000 A 
ATOM      7  O   UNL     1     -11.881  20.176 -27.264  0.00  0.00    +0.000 OA
ATOM      8  C   UNL     1     -13.295  20.090 -27.291  0.00  0.00    +0.000 C 
ATOM      9  O   UNL     1     -13.572  19.350 -26.109  0.00  0.00    +0.000 OA
ENDROOT
BRANCH   1  11
ATOM     10  C   UNL     1      -8.484  21.123 -26.839  0.00  0.00    +0.000 C 
ATOM     11  O   UNL     1      -9.075  20.036 -26.172  0.00  0.00    +0.000 OA
ENDBRANCH   1  11
BRANCH   3  12
ATOM     12  C   UNL     1     -11.158  20.046 -21.828  0.00  0.00    +0.000 C 
ATOM     13  C   UNL     1     -10.667  19.248 -20.914  0.00  0.00    +0.000 C 
BRANCH  13  14
ATOM     14  C   UNL     1     -11.428  18.786 -19.745  0.00  0.00    +0.000 A 
ATOM     15  C   UNL     1     -11.922  17.487 -19.695  0.00  0.00    +0.000 A 
ATOM     16  C   UNL     1     -13.199  17.228 -19.216  0.00  0.00    +0.000 A 
ATOM     17  C   UNL     1     -13.993  18.245 -18.708  0.00  0.00    +0.000 A 
ATOM     18  C   UNL     1     -13.349  19.439 -18.409  0.00  0.00    +0.000 A 
ATOM     19  O   UNL     1     -14.138  20.487 -17.927  0.00  0.00    +0.000 OA
ATOM     20  C   UNL     1     -12.073  19.685 -18.902  0.00  0.00    +0.000 A 
BRANCH  17  21
ATOM     21  O   UNL     1     -15.363  18.104 -18.754  0.00  0.00    +0.000 OA
ATOM     22  C   UNL     1     -16.170  18.546 -19.828  0.00  0.00    +0.000 C 
ENDBRANCH  17  21
ENDBRANCH  13  14
ENDBRANCH   3  12
BRANCH   4  23
ATOM     23  O   UNL     1     -13.508  19.208 -23.108  0.00  0.00    +0.000 OA
ATOM     24  C   UNL     1     -14.107  17.982 -22.771  0.00  0.00    +0.000 C 
ENDBRANCH   4  23
TORSDOF 5
ENDMDL
MODEL 4
REMARK VINA RESULT:      -5.6      2.479      4.614
REMARK  Name = 
REMARK  5 active torsions:
REMARK  status: ('A' for Active; 'I' for Inactive)
REMARK    1  A    between atoms: O_2  and  C_3
REMARK    2  A    between atoms: C_5  and  C_6
REMARK    3  A    between atoms: C_7  and  C_8
REMARK    4  A    between atoms: C_11  and  O_12
REMARK    5  A    between atoms: C_17  and  O_18
REMARK                            x       y       z     vdW  Elec       q    Type
REMARK                         _______ _______ _______ _____ _____    ______ ____
ROOT
ATOM      1  C   UNL     1     -32.538  -3.689  -5.088  0.00  0.00    +0.000 A 
ATOM      2  C   UNL     1     -33.243  -4.521  -4.227  0.00  0.00    +0.000 A 
ATOM      3  C   UNL     1     -32.554  -5.248  -3.264  0.00  0.00    +0.000 A 
ATOM      4  C   UNL     1     -31.168  -5.171  -3.218  0.00  0.00    +0.000 A 
ATOM      5  C   UNL     1     -30.461  -4.478  -4.168  0.00  0.00    +0.000 A 
ATOM      6  C   UNL     1     -31.166  -3.810  -5.134  0.00  0.00    +0.000 A 
ATOM      7  O   UNL     1     -30.269  -3.419  -6.121  0.00  0.00    +0.000 OA
ATOM      8  C   UNL     1     -29.038  -4.092  -5.917  0.00  0.00    +0.000 C 
ATOM      9  O   UNL     1     -29.142  -4.497  -4.558  0.00  0.00    +0.000 OA
ENDROOT
BRANCH   1  11
ATOM     10  C   UNL     1     -34.494  -2.351  -5.698  0.00  0.00    +0.000 C 
ATOM     11  O   UNL     1     -33.101  -2.521  -5.612  0.00  0.00    +0.000 OA
ENDBRANCH   1  11
BRANCH   3  12
ATOM     12  C   UNL     1     -33.335  -6.223  -2.539  0.00  0.00    +0.000 C 
ATOM     13  C   UNL     1     -33.871  -7.310  -3.034  0.00  0.00    +0.000 C 
BRANCH  13  14
ATOM     14  C   UNL     1     -35.306  -7.620  -2.950  0.00  0.00    +0.000 A 
ATOM     15  C   UNL     1     -35.731  -8.922  -2.713  0.00  0.00    +0.000 A 
ATOM     16  C   UNL     1     -36.807  -9.458  -3.407  0.00  0.00    +0.000 A 
ATOM     17  C   UNL     1     -37.533  -8.691  -4.305  0.00  0.00    +0.000 A 
ATOM     18  C   UNL     1     -37.345  -7.316  -4.235  0.00  0.00    +0.000 A 
ATOM     19  O   UNL     1     -38.042  -6.527  -5.155  0.00  0.00    +0.000 OA
ATOM     20  C   UNL     1     -36.257  -6.797  -3.542  0.00  0.00    +0.000 A 
BRANCH  17  21
ATOM     21  O   UNL     1     -38.192  -9.322  -5.337  0.00  0.00    +0.000 OA
ATOM     22  C   UNL     1     -37.570  -9.740  -6.536  0.00  0.00    +0.000 C 
ENDBRANCH  17  21
ENDBRANCH  13  14
ENDBRANCH   3  12
BRANCH   4  23
ATOM     23  O   UNL     1     -30.532  -6.179  -2.491  0.00  0.00    +0.000 OA
ATOM     24  C   UNL     1     -29.952  -7.316  -3.079  0.00  0.00    +0.000 C 
ENDBRANCH   4  23
TORSDOF 5
ENDMDL
MODEL 5
REMARK VINA RESULT:      -5.6      2.207      6.970
REMARK  Name = 
REMARK  5 active torsions:
REMARK  status: ('A' for Active; 'I' for Inactive)
REMARK    1  A    between atoms: O_2  and  C_3
REMARK    2  A    between atoms: C_5  and  C_6
REMARK    3  A    between atoms: C_7  and  C_8
REMARK    4  A    between atoms: C_11  and  O_12
REMARK    5  A    between atoms: C_17  and  O_18
REMARK                            x       y       z     vdW  Elec       q    Type
REMARK                         _______ _______ _______ _____ _____    ______ ____
ROOT
ATOM      1  C   UNL     1     -37.466  -2.838  -7.339  0.00  0.00    +0.000 A 
ATOM      2  C   UNL     1     -36.349  -2.386  -6.647  0.00  0.00    +0.000 A 
ATOM      3  C   UNL     1     -35.506  -3.306  -6.036  0.00  0.00    +0.000 A 
ATOM      4  C   UNL     1     -35.828  -4.657  -6.082  0.00  0.00    +0.000 A 
ATOM      5  C   UNL     1     -37.012  -5.089  -6.624  0.00  0.00    +0.000 A 
ATOM      6  C   UNL     1     -37.845  -4.153  -7.177  0.00  0.00    +0.000 A 
ATOM      7  O   UNL     1     -39.073  -4.762  -7.410  0.00  0.00    +0.000 OA
ATOM      8  C   UNL     1     -39.103  -6.009  -6.738  0.00  0.00    +0.000 C 
ATOM      9  O   UNL     1     -37.721  -6.263  -6.519  0.00  0.00    +0.000 OA
ENDROOT
BRANCH   1  11
ATOM     10  C   UNL     1     -38.327  -0.788  -8.362  0.00  0.00    +0.000 C 
ATOM     11  O   UNL     1     -37.980  -2.149  -8.442  0.00  0.00    +0.000 OA
ENDBRANCH   1  11
BRANCH   3  12
ATOM     12  C   UNL     1     -34.481  -2.747  -5.186  0.00  0.00    +0.000 C 
ATOM     13  C   UNL     1     -33.200  -2.697  -5.448  0.00  0.00    +0.000 C 
BRANCH  13  14
ATOM     14  C   UNL     1     -32.167  -3.269  -4.571  0.00  0.00    +0.000 A 
ATOM     15  C   UNL     1     -30.959  -3.709  -5.101  0.00  0.00    +0.000 A 
ATOM     16  C   UNL     1     -30.382  -4.895  -4.669  0.00  0.00    +0.000 A 
ATOM     17  C   UNL     1     -30.955  -5.640  -3.650  0.00  0.00    +0.000 A 
ATOM     18  C   UNL     1     -31.921  -4.999  -2.884  0.00  0.00    +0.000 A 
ATOM     19  O   UNL     1     -32.535  -5.744  -1.874  0.00  0.00    +0.000 OA
ATOM     20  C   UNL     1     -32.493  -3.815  -3.335  0.00  0.00    +0.000 A 
BRANCH  17  21
ATOM     21  O   UNL     1     -30.722  -6.998  -3.607  0.00  0.00    +0.000 OA
ATOM     22  C   UNL     1     -29.519  -7.581  -3.147  0.00  0.00    +0.000 C 
ENDBRANCH  17  21
ENDBRANCH  13  14
ENDBRANCH   3  12
BRANCH   4  23
ATOM     23  O   UNL     1     -35.159  -5.467  -5.163  0.00  0.00    +0.000 OA
ATOM     24  C   UNL     1     -34.176  -6.405  -5.523  0.00  0.00    +0.000 C 
ENDBRANCH   4  23
TORSDOF 5
ENDMDL
MODEL 6
REMARK VINA RESULT:      -5.6     33.536     35.268
REMARK  Name = 
REMARK  5 active torsions:
REMARK  status: ('A' for Active; 'I' for Inactive)
REMARK    1  A    between atoms: O_2  and  C_3
REMARK    2  A    between atoms: C_5  and  C_6
REMARK    3  A    between atoms: C_7  and  C_8
REMARK    4  A    between atoms: C_11  and  O_12
REMARK    5  A    between atoms: C_17  and  O_18
REMARK                            x       y       z     vdW  Elec       q    Type
REMARK                         _______ _______ _______ _____ _____    ______ ____
ROOT
ATOM      1  C   UNL     1       0.576   1.191  -7.378  0.00  0.00    +0.000 A 
ATOM      2  C   UNL     1       0.544   2.287  -6.526  0.00  0.00    +0.000 A 
ATOM      3  C   UNL     1      -0.425   3.266  -6.710  0.00  0.00    +0.000 A 
ATOM      4  C   UNL     1      -1.307   3.156  -7.778  0.00  0.00    +0.000 A 
ATOM      5  C   UNL     1      -1.174   2.160  -8.712  0.00  0.00    +0.000 A 
ATOM      6  C   UNL     1      -0.179   1.237  -8.530  0.00  0.00    +0.000 A 
ATOM      7  O   UNL     1      -0.057   0.506  -9.706  0.00  0.00    +0.000 OA
ATOM      8  C   UNL     1      -0.783   1.161 -10.732  0.00  0.00    +0.000 C 
ATOM      9  O   UNL     1      -1.659   1.999  -9.990  0.00  0.00    +0.000 OA
ENDROOT
BRANCH   1  11
ATOM     10  C   UNL     1       0.166  -0.978  -6.319  0.00  0.00    +0.000 C 
ATOM     11  O   UNL     1       1.026  -0.063  -6.952  0.00  0.00    +0.000 OA
ENDBRANCH   1  11
BRANCH   3  12
ATOM     12  C   UNL     1      -0.273   4.456  -5.905  0.00  0.00    +0.000 C 
ATOM     13  C   UNL     1       0.857   4.999  -5.531  0.00  0.00    +0.000 C 
BRANCH  13  14
ATOM     14  C   UNL     1       1.213   5.251  -4.127  0.00  0.00    +0.000 A 
ATOM     15  C   UNL     1       0.341   4.894  -3.104  0.00  0.00    +0.000 A 
ATOM     16  C   UNL     1       0.125   5.739  -2.025  0.00  0.00    +0.000 A 
ATOM     17  C   UNL     1       0.823   6.930  -1.897  0.00  0.00    +0.000 A 
ATOM     18  C   UNL     1       1.946   7.076  -2.702  0.00  0.00    +0.000 A 
ATOM     19  O   UNL     1       2.644   8.284  -2.613  0.00  0.00    +0.000 OA
ATOM     20  C   UNL     1       2.143   6.225  -3.783  0.00  0.00    +0.000 A 
BRANCH  17  21
ATOM     21  O   UNL     1       0.251   7.963  -1.187  0.00  0.00    +0.000 OA
ATOM     22  C   UNL     1      -1.127   8.044  -0.877  0.00  0.00    +0.000 C 
ENDBRANCH  17  21
ENDBRANCH  13  14
ENDBRANCH   3  12
BRANCH   4  23
ATOM     23  O   UNL     1      -1.995   4.323  -8.114  0.00  0.00    +0.000 OA
ATOM     24  C   UNL     1      -1.514   5.274  -9.031  0.00  0.00    +0.000 C 
ENDBRANCH   4  23
TORSDOF 5
ENDMDL
MODEL 7
REMARK VINA RESULT:      -5.5      2.629      7.508
REMARK  Name = 
REMARK  5 active torsions:
REMARK  status: ('A' for Active; 'I' for Inactive)
REMARK    1  A    between atoms: O_2  and  C_3
REMARK    2  A    between atoms: C_5  and  C_6
REMARK    3  A    between atoms: C_7  and  C_8
REMARK    4  A    between atoms: C_11  and  O_12
REMARK    5  A    between atoms: C_17  and  O_18
REMARK                            x       y       z     vdW  Elec       q    Type
REMARK                         _______ _______ _______ _____ _____    ______ ____
ROOT
ATOM      1  C   UNL     1     -37.342  -5.945  -8.198  0.00  0.00    +0.000 A 
ATOM      2  C   UNL     1     -36.257  -6.322  -7.418  0.00  0.00    +0.000 A 
ATOM      3  C   UNL     1     -35.605  -5.366  -6.648  0.00  0.00    +0.000 A 
ATOM      4  C   UNL     1     -36.018  -4.041  -6.719  0.00  0.00    +0.000 A 
ATOM      5  C   UNL     1     -36.982  -3.642  -7.609  0.00  0.00    +0.000 A 
ATOM      6  C   UNL     1     -37.573  -4.600  -8.389  0.00  0.00    +0.000 A 
ATOM      7  O   UNL     1     -38.299  -3.952  -9.381  0.00  0.00    +0.000 OA
ATOM      8  C   UNL     1     -37.933  -2.583  -9.399  0.00  0.00    +0.000 C 
ATOM      9  O   UNL     1     -37.341  -2.415  -8.117  0.00  0.00    +0.000 OA
ENDROOT
BRANCH   1  11
ATOM     10  C   UNL     1     -38.834  -7.768  -7.533  0.00  0.00    +0.000 C 
ATOM     11  O   UNL     1     -38.392  -6.826  -8.479  0.00  0.00    +0.000 OA
ENDBRANCH   1  11
BRANCH   3  12
ATOM     12  C   UNL     1     -34.381  -5.801  -6.016  0.00  0.00    +0.000 C 
ATOM     13  C   UNL     1     -34.284  -6.579  -4.969  0.00  0.00    +0.000 C 
BRANCH  13  14
ATOM     14  C   UNL     1     -33.573  -6.203  -3.738  0.00  0.00    +0.000 A 
ATOM     15  C   UNL     1     -33.331  -4.865  -3.447  0.00  0.00    +0.000 A 
ATOM     16  C   UNL     1     -32.106  -4.458  -2.936  0.00  0.00    +0.000 A 
ATOM     17  C   UNL     1     -31.114  -5.379  -2.636  0.00  0.00    +0.000 A 
ATOM     18  C   UNL     1     -31.508  -6.709  -2.564  0.00  0.00    +0.000 A 
ATOM     19  O   UNL     1     -30.516  -7.657  -2.296  0.00  0.00    +0.000 OA
ATOM     20  C   UNL     1     -32.735  -7.101  -3.087  0.00  0.00    +0.000 A 
BRANCH  17  21
ATOM     21  O   UNL     1     -29.798  -4.971  -2.664  0.00  0.00    +0.000 OA
ATOM     22  C   UNL     1     -29.053  -4.775  -3.850  0.00  0.00    +0.000 C 
ENDBRANCH  17  21
ENDBRANCH  13  14
ENDBRANCH   3  12
BRANCH   4  23
ATOM     23  O   UNL     1     -35.114  -3.102  -6.220  0.00  0.00    +0.000 OA
ATOM     24  C   UNL     1     -35.376  -2.283  -5.107  0.00  0.00    +0.000 C 
ENDBRANCH   4  23
TORSDOF 5
ENDMDL
MODEL 8
REMARK VINA RESULT:      -5.4     11.246     13.753
REMARK  Name = 
REMARK  5 active torsions:
REMARK  status: ('A' for Active; 'I' for Inactive)
REMARK    1  A    between atoms: O_2  and  C_3
REMARK    2  A    between atoms: C_5  and  C_6
REMARK    3  A    between atoms: C_7  and  C_8
REMARK    4  A    between atoms: C_11  and  O_12
REMARK    5  A    between atoms: C_17  and  O_18
REMARK                            x       y       z     vdW  Elec       q    Type
REMARK                         _______ _______ _______ _____ _____    ______ ____
ROOT
ATOM      1  C   UNL     1     -31.853   7.689  -6.542  0.00  0.00    +0.000 A 
ATOM      2  C   UNL     1     -31.577   7.427  -7.878  0.00  0.00    +0.000 A 
ATOM      3  C   UNL     1     -32.613   7.073  -8.733  0.00  0.00    +0.000 A 
ATOM      4  C   UNL     1     -33.897   6.933  -8.220  0.00  0.00    +0.000 A 
ATOM      5  C   UNL     1     -34.143   7.034  -6.874  0.00  0.00    +0.000 A 
ATOM      6  C   UNL     1     -33.090   7.337  -6.051  0.00  0.00    +0.000 A 
ATOM      7  O   UNL     1     -33.501   7.121  -4.740  0.00  0.00    +0.000 OA
ATOM      8  C   UNL     1     -34.724   6.405  -4.753  0.00  0.00    +0.000 C 
ATOM      9  O   UNL     1     -35.190   6.635  -6.077  0.00  0.00    +0.000 OA
ENDROOT
BRANCH   1  11
ATOM     10  C   UNL     1     -29.891   8.226  -5.180  0.00  0.00    +0.000 C 
ATOM     11  O   UNL     1     -31.097   8.601  -5.797  0.00  0.00    +0.000 OA
ENDBRANCH   1  11
BRANCH   3  12
ATOM     12  C   UNL     1     -32.217   6.638 -10.052  0.00  0.00    +0.000 C 
ATOM     13  C   UNL     1     -31.549   5.551 -10.341  0.00  0.00    +0.000 C 
BRANCH  13  14
ATOM     14  C   UNL     1     -30.281   5.548 -11.084  0.00  0.00    +0.000 A 
ATOM     15  C   UNL     1     -29.228   4.736 -10.676  0.00  0.00    +0.000 A 
ATOM     16  C   UNL     1     -27.923   5.210 -10.672  0.00  0.00    +0.000 A 
ATOM     17  C   UNL     1     -27.621   6.479 -11.141  0.00  0.00    +0.000 A 
ATOM     18  C   UNL     1     -28.605   7.109 -11.893  0.00  0.00    +0.000 A 
ATOM     19  O   UNL     1     -28.333   8.403 -12.346  0.00  0.00    +0.000 OA
ATOM     20  C   UNL     1     -29.908   6.626 -11.879  0.00  0.00    +0.000 A 
BRANCH  17  21
ATOM     21  O   UNL     1     -26.503   7.120 -10.653  0.00  0.00    +0.000 OA
ATOM     22  C   UNL     1     -26.453   7.789  -9.409  0.00  0.00    +0.000 C 
ENDBRANCH  17  21
ENDBRANCH  13  14
ENDBRANCH   3  12
BRANCH   4  23
ATOM     23  O   UNL     1     -34.797   6.238  -9.030  0.00  0.00    +0.000 OA
ATOM     24  C   UNL     1     -36.004   6.785  -9.501  0.00  0.00    +0.000 C 
ENDBRANCH   4  23
TORSDOF 5
ENDMDL
MODEL 9
REMARK VINA RESULT:      -5.3     11.807     14.623
REMARK  Name = 
REMARK  5 active torsions:
REMARK  status: ('A' for Active; 'I' for Inactive)
REMARK    1  A    between atoms: O_2  and  C_3
REMARK    2  A    between atoms: C_5  and  C_6
REMARK    3  A    between atoms: C_7  and  C_8
REMARK    4  A    between atoms: C_11  and  O_12
REMARK    5  A    between atoms: C_17  and  O_18
REMARK                            x       y       z     vdW  Elec       q    Type
REMARK                         _______ _______ _______ _____ _____    ______ ____
ROOT
ATOM      1  C   UNL     1     -31.837   7.487  -6.787  0.00  0.00    +0.000 A 
ATOM      2  C   UNL     1     -31.174   7.826  -7.960  0.00  0.00    +0.000 A 
ATOM      3  C   UNL     1     -31.840   7.722  -9.174  0.00  0.00    +0.000 A 
ATOM      4  C   UNL     1     -33.138   7.227  -9.197  0.00  0.00    +0.000 A 
ATOM      5  C   UNL     1     -33.735   6.741  -8.062  0.00  0.00    +0.000 A 
ATOM      6  C   UNL     1     -33.035   6.813  -6.886  0.00  0.00    +0.000 A 
ATOM      7  O   UNL     1     -33.700   6.034  -5.947  0.00  0.00    +0.000 OA
ATOM      8  C   UNL     1     -34.667   5.238  -6.611  0.00  0.00    +0.000 C 
ATOM      9  O   UNL     1     -34.821   5.924  -7.847  0.00  0.00    +0.000 OA
ENDROOT
BRANCH   1  11
ATOM     10  C   UNL     1     -31.132   9.448  -5.503  0.00  0.00    +0.000 C 
ATOM     11  O   UNL     1     -31.543   8.105  -5.567  0.00  0.00    +0.000 OA
ENDBRANCH   1  11
BRANCH   3  12
ATOM     12  C   UNL     1     -31.026   7.914 -10.352  0.00  0.00    +0.000 C 
ATOM     13  C   UNL     1     -30.046   7.145 -10.750  0.00  0.00    +0.000 C 
BRANCH  13  14
ATOM     14  C   UNL     1     -28.677   7.627 -10.986  0.00  0.00    +0.000 A 
ATOM     15  C   UNL     1     -27.619   6.728 -11.070  0.00  0.00    +0.000 A 
ATOM     16  C   UNL     1     -26.403   7.001 -10.459  0.00  0.00    +0.000 A 
ATOM     17  C   UNL     1     -26.183   8.205  -9.808  0.00  0.00    +0.000 A 
ATOM     18  C   UNL     1     -27.092   9.223 -10.069  0.00  0.00    +0.000 A 
ATOM     19  O   UNL     1     -26.907  10.434  -9.396  0.00  0.00    +0.000 OA
ATOM     20  C   UNL     1     -28.308   8.931 -10.675  0.00  0.00    +0.000 A 
BRANCH  17  21
ATOM     21  O   UNL     1     -25.254   8.251  -8.791  0.00  0.00    +0.000 OA
ATOM     22  C   UNL     1     -25.491   7.782  -7.479  0.00  0.00    +0.000 C 
ENDBRANCH  17  21
ENDBRANCH  13  14
ENDBRANCH   3  12
BRANCH   4  23
ATOM     23  O   UNL     1     -33.603   6.813 -10.446  0.00  0.00    +0.000 OA
ATOM     24  C   UNL     1     -34.662   7.438 -11.129  0.00  0.00    +0.000 C 
ENDBRANCH   4  23
TORSDOF 5
ENDMDL
MODEL 10
REMARK VINA RESULT:      -5.3     14.209     15.154
REMARK  Name = 
REMARK  5 active torsions:
REMARK  status: ('A' for Active; 'I' for Inactive)
REMARK    1  A    between atoms: O_2  and  C_3
REMARK    2  A    between atoms: C_5  and  C_6
REMARK    3  A    between atoms: C_7  and  C_8
REMARK    4  A    between atoms: C_11  and  O_12
REMARK    5  A    between atoms: C_17  and  O_18
REMARK                            x       y       z     vdW  Elec       q    Type
REMARK                         _______ _______ _______ _____ _____    ______ ____
ROOT
ATOM      1  C   UNL     1     -24.895   8.392  -3.740  0.00  0.00    +0.000 A 
ATOM      2  C   UNL     1     -24.703   8.096  -5.083  0.00  0.00    +0.000 A 
ATOM      3  C   UNL     1     -25.769   8.212  -5.967  0.00  0.00    +0.000 A 
ATOM      4  C   UNL     1     -27.020   8.568  -5.478  0.00  0.00    +0.000 A 
ATOM      5  C   UNL     1     -27.248   8.703  -4.132  0.00  0.00    +0.000 A 
ATOM      6  C   UNL     1     -26.187   8.535  -3.281  0.00  0.00    +0.000 A 
ATOM      7  O   UNL     1     -26.690   8.446  -1.988  0.00  0.00    +0.000 OA
ATOM      8  C   UNL     1     -28.095   8.269  -2.052  0.00  0.00    +0.000 C 
ATOM      9  O   UNL     1     -28.392   8.716  -3.369  0.00  0.00    +0.000 OA
ENDROOT
BRANCH   1  11
ATOM     10  C   UNL     1     -23.136   8.081  -2.067  0.00  0.00    +0.000 C 
ATOM     11  O   UNL     1     -23.867   8.904  -2.941  0.00  0.00    +0.000 OA
ENDBRANCH   1  11
BRANCH   3  12
ATOM     12  C   UNL     1     -25.533   7.710  -7.300  0.00  0.00    +0.000 C 
ATOM     13  C   UNL     1     -25.178   8.416  -8.343  0.00  0.00    +0.000 C 
BRANCH  13  14
ATOM     14  C   UNL     1     -25.937   8.447  -9.602  0.00  0.00    +0.000 A 
ATOM     15  C   UNL     1     -26.749   9.534  -9.908  0.00  0.00    +0.000 A 
ATOM     16  C   UNL     1     -28.006   9.349 -10.466  0.00  0.00    +0.000 A 
ATOM     17  C   UNL     1     -28.461   8.083 -10.801  0.00  0.00    +0.000 A 
ATOM     18  C   UNL     1     -27.505   7.077 -10.853  0.00  0.00    +0.000 A 
ATOM     19  O   UNL     1     -27.949   5.786 -11.156  0.00  0.00    +0.000 OA
ATOM     20  C   UNL     1     -26.253   7.277 -10.282  0.00  0.00    +0.000 A 
BRANCH  17  21
ATOM     21  O   UNL     1     -29.819   7.850 -10.826  0.00  0.00    +0.000 OA
ATOM     22  C   UNL     1     -30.682   8.300 -11.851  0.00  0.00    +0.000 C 
ENDBRANCH  17  21
ENDBRANCH  13  14
ENDBRANCH   3  12
BRANCH   4  23
ATOM     23  O   UNL     1     -28.095   8.314  -6.333  0.00  0.00    +0.000 OA
ATOM     24  C   UNL     1     -28.907   9.322  -6.882  0.00  0.00    +0.000 C 
ENDBRANCH   4  23
TORSDOF 5
ENDMDL
