MODEL 1
REMARK VINA RESULT:      -5.4      0.000      0.000
REMARK  Name = 
REMARK  6 active torsions:
REMARK  status: ('A' for Active; 'I' for Inactive)
REMARK    1  A    between atoms: O_2  and  C_3
REMARK    2  A    between atoms: C_6  and  C_7
REMARK    3  A    between atoms: C_8  and  C_9
REMARK    4  A    between atoms: C_11  and  O_12
REMARK    5  A    between atoms: C_14  and  O_15
REMARK    6  A    between atoms: C_17  and  O_18
REMARK                            x       y       z     vdW  Elec       q    Type
REMARK                         _______ _______ _______ _____ _____    ______ ____
ROOT
ATOM      1  C   UNL     1     -32.002  -3.228  -4.987  0.00  0.00    +0.000 C 
ATOM      2  C   UNL     1     -33.316  -3.016  -4.919  0.00  0.00    +0.000 C 
ENDROOT
BRANCH   1   6
ATOM      3  C   UNL     1     -31.918  -6.369  -2.339  0.00  0.00    +0.000 A 
ATOM      4  C   UNL     1     -32.139  -5.100  -1.827  0.00  0.00    +0.000 A 
ATOM      5  C   UNL     1     -31.942  -3.969  -2.608  0.00  0.00    +0.000 A 
ATOM      6  C   UNL     1     -31.463  -4.067  -3.909  0.00  0.00    +0.000 A 
ATOM      7  C   UNL     1     -30.928  -5.301  -4.254  0.00  0.00    +0.000 A 
ATOM      8  O   UNL     1     -30.229  -5.399  -5.446  0.00  0.00    +0.000 OA
ATOM      9  C   UNL     1     -31.126  -6.436  -3.476  0.00  0.00    +0.000 A 
ATOM     10  O   UNL     1     -30.798  -7.710  -3.935  0.00  0.00    +0.000 OA
BRANCH   3  12
ATOM     11  C   UNL     1     -34.077  -7.552  -2.522  0.00  0.00    +0.000 C 
ATOM     12  O   UNL     1     -32.758  -7.433  -2.015  0.00  0.00    +0.000 OA
ENDBRANCH   3  12
ENDBRANCH   1   6
BRANCH   2  13
ATOM     13  C   UNL     1     -34.127  -4.242  -4.901  0.00  0.00    +0.000 A 
ATOM     14  C   UNL     1     -35.183  -4.282  -4.001  0.00  0.00    +0.000 A 
ATOM     15  C   UNL     1     -36.420  -4.819  -4.334  0.00  0.00    +0.000 A 
ATOM     16  C   UNL     1     -36.649  -5.289  -5.621  0.00  0.00    +0.000 A 
ATOM     17  C   UNL     1     -35.519  -5.560  -6.383  0.00  0.00    +0.000 A 
ATOM     18  C   UNL     1     -34.281  -5.037  -6.030  0.00  0.00    +0.000 A 
BRANCH  15  19
ATOM     19  O   UNL     1     -37.515  -4.776  -3.495  0.00  0.00    +0.000 OA
ATOM     20  C   UNL     1     -38.067  -3.612  -2.941  0.00  0.00    +0.000 C 
ENDBRANCH  15  19
BRANCH  16  21
ATOM     21  O   UNL     1     -37.866  -5.089  -6.276  0.00  0.00    +0.000 OA
ATOM     22  C   UNL     1     -38.274  -3.837  -6.785  0.00  0.00    +0.000 C 
ENDBRANCH  16  21
BRANCH  17  23
ATOM     23  O   UNL     1     -35.714  -6.053  -7.671  0.00  0.00    +0.000 OA
ATOM     24  C   UNL     1     -35.856  -7.428  -7.935  0.00  0.00    +0.000 C 
ENDBRANCH  17  23
ENDBRANCH   2  13
TORSDOF 6
ENDMDL
MODEL 2
REMARK VINA RESULT:      -5.4     13.775     15.867
REMARK  Name = 
REMARK  6 active torsions:
REMARK  status: ('A' for Active; 'I' for Inactive)
REMARK    1  A    between atoms: O_2  and  C_3
REMARK    2  A    between atoms: C_6  and  C_7
REMARK    3  A    between atoms: C_8  and  C_9
REMARK    4  A    between atoms: C_11  and  O_12
REMARK    5  A    between atoms: C_14  and  O_15
REMARK    6  A    between atoms: C_17  and  O_18
REMARK                            x       y       z     vdW  Elec       q    Type
REMARK                         _______ _______ _______ _____ _____    ______ ____
ROOT
ATOM      1  C   UNL     1     -26.945   6.666  -9.485  0.00  0.00    +0.000 C 
ATOM      2  C   UNL     1     -26.738   6.485 -10.789  0.00  0.00    +0.000 C 
ENDROOT
BRANCH   1   6
ATOM      3  C   UNL     1     -27.819   9.815  -6.994  0.00  0.00    +0.000 A 
ATOM      4  C   UNL     1     -28.881   9.106  -7.533  0.00  0.00    +0.000 A 
ATOM      5  C   UNL     1     -28.683   8.196  -8.563  0.00  0.00    +0.000 A 
ATOM      6  C   UNL     1     -27.427   8.006  -9.125  0.00  0.00    +0.000 A 
ATOM      7  C   UNL     1     -26.482   8.971  -8.807  0.00  0.00    +0.000 A 
ATOM      8  O   UNL     1     -25.288   8.973  -9.510  0.00  0.00    +0.000 OA
ATOM      9  C   UNL     1     -26.674   9.882  -7.774  0.00  0.00    +0.000 A 
ATOM     10  O   UNL     1     -25.641  10.688  -7.300  0.00  0.00    +0.000 OA
BRANCH   3  12
ATOM     11  C   UNL     1     -27.616   9.032  -4.662  0.00  0.00    +0.000 C 
ATOM     12  O   UNL     1     -27.741  10.065  -5.624  0.00  0.00    +0.000 OA
ENDBRANCH   3  12
ENDBRANCH   1   6
BRANCH   2  13
ATOM     13  C   UNL     1     -27.914   6.744 -11.632  0.00  0.00    +0.000 A 
ATOM     14  C   UNL     1     -29.064   6.021 -11.343  0.00  0.00    +0.000 A 
ATOM     15  C   UNL     1     -30.327   6.600 -11.369  0.00  0.00    +0.000 A 
ATOM     16  C   UNL     1     -30.464   7.956 -11.637  0.00  0.00    +0.000 A 
ATOM     17  C   UNL     1     -29.380   8.571 -12.251  0.00  0.00    +0.000 A 
ATOM     18  C   UNL     1     -28.124   7.974 -12.241  0.00  0.00    +0.000 A 
BRANCH  15  19
ATOM     19  O   UNL     1     -31.473   5.934 -10.984  0.00  0.00    +0.000 OA
ATOM     20  C   UNL     1     -31.815   5.605  -9.664  0.00  0.00    +0.000 C 
ENDBRANCH  15  19
BRANCH  16  21
ATOM     21  O   UNL     1     -31.393   8.753 -10.964  0.00  0.00    +0.000 OA
ATOM     22  C   UNL     1     -32.636   9.127 -11.518  0.00  0.00    +0.000 C 
ENDBRANCH  16  21
BRANCH  17  23
ATOM     23  O   UNL     1     -29.493   9.926 -12.553  0.00  0.00    +0.000 OA
ATOM     24  C   UNL     1     -28.594  10.884 -12.051  0.00  0.00    +0.000 C 
ENDBRANCH  17  23
ENDBRANCH   2  13
TORSDOF 6
ENDMDL
MODEL 3
REMARK VINA RESULT:      -5.3      2.311      3.735
REMARK  Name = 
REMARK  6 active torsions:
REMARK  status: ('A' for Active; 'I' for Inactive)
REMARK    1  A    between atoms: O_2  and  C_3
REMARK    2  A    between atoms: C_6  and  C_7
REMARK    3  A    between atoms: C_8  and  C_9
REMARK    4  A    between atoms: C_11  and  O_12
REMARK    5  A    between atoms: C_14  and  O_15
REMARK    6  A    between atoms: C_17  and  O_18
REMARK                            x       y       z     vdW  Elec       q    Type
REMARK                         _______ _______ _______ _____ _____    ______ ____
ROOT
ATOM      1  C   UNL     1     -34.064  -5.001  -6.069  0.00  0.00    +0.000 C 
ATOM      2  C   UNL     1     -35.034  -4.149  -6.401  0.00  0.00    +0.000 C 
ENDROOT
BRANCH   1   6
ATOM      3  C   UNL     1     -30.286  -4.849  -4.462  0.00  0.00    +0.000 A 
ATOM      4  C   UNL     1     -31.352  -4.553  -3.628  0.00  0.00    +0.000 A 
ATOM      5  C   UNL     1     -32.625  -4.345  -4.142  0.00  0.00    +0.000 A 
ATOM      6  C   UNL     1     -32.862  -4.368  -5.511  0.00  0.00    +0.000 A 
ATOM      7  C   UNL     1     -31.728  -4.315  -6.311  0.00  0.00    +0.000 A 
ATOM      8  O   UNL     1     -31.897  -4.102  -7.669  0.00  0.00    +0.000 OA
ATOM      9  C   UNL     1     -30.453  -4.526  -5.800  0.00  0.00    +0.000 A 
ATOM     10  O   UNL     1     -29.347  -4.708  -6.629  0.00  0.00    +0.000 OA
BRANCH   3  12
ATOM     11  C   UNL     1     -29.614  -6.943  -3.341  0.00  0.00    +0.000 C 
ATOM     12  O   UNL     1     -29.314  -5.776  -4.087  0.00  0.00    +0.000 OA
ENDBRANCH   3  12
ENDBRANCH   1   6
BRANCH   2  13
ATOM     13  C   UNL     1     -35.489  -3.288  -5.300  0.00  0.00    +0.000 A 
ATOM     14  C   UNL     1     -35.766  -1.964  -5.613  0.00  0.00    +0.000 A 
ATOM     15  C   UNL     1     -36.863  -1.293  -5.087  0.00  0.00    +0.000 A 
ATOM     16  C   UNL     1     -37.756  -1.964  -4.261  0.00  0.00    +0.000 A 
ATOM     17  C   UNL     1     -37.294  -3.143  -3.691  0.00  0.00    +0.000 A 
ATOM     18  C   UNL     1     -36.182  -3.796  -4.209  0.00  0.00    +0.000 A 
BRANCH  15  19
ATOM     19  O   UNL     1     -37.220  -0.014  -5.462  0.00  0.00    +0.000 OA
ATOM     20  C   UNL     1     -37.393   0.425  -6.783  0.00  0.00    +0.000 C 
ENDBRANCH  15  19
BRANCH  16  21
ATOM     21  O   UNL     1     -39.135  -1.750  -4.334  0.00  0.00    +0.000 OA
ATOM     22  C   UNL     1     -39.934  -2.222  -5.397  0.00  0.00    +0.000 C 
ENDBRANCH  16  21
BRANCH  17  23
ATOM     23  O   UNL     1     -38.158  -3.829  -2.840  0.00  0.00    +0.000 OA
ATOM     24  C   UNL     1     -38.664  -5.104  -3.154  0.00  0.00    +0.000 C 
ENDBRANCH  17  23
ENDBRANCH   2  13
TORSDOF 6
ENDMDL
MODEL 4
REMARK VINA RESULT:      -5.1     12.448     14.652
REMARK  Name = 
REMARK  6 active torsions:
REMARK  status: ('A' for Active; 'I' for Inactive)
REMARK    1  A    between atoms: O_2  and  C_3
REMARK    2  A    between atoms: C_6  and  C_7
REMARK    3  A    between atoms: C_8  and  C_9
REMARK    4  A    between atoms: C_11  and  O_12
REMARK    5  A    between atoms: C_14  and  O_15
REMARK    6  A    between atoms: C_17  and  O_18
REMARK                            x       y       z     vdW  Elec       q    Type
REMARK                         _______ _______ _______ _____ _____    ______ ____
ROOT
ATOM      1  C   UNL     1     -29.055   4.860 -10.390  0.00  0.00    +0.000 C 
ATOM      2  C   UNL     1     -30.380   4.775 -10.511  0.00  0.00    +0.000 C 
ENDROOT
BRANCH   1   6
ATOM      3  C   UNL     1     -28.441   8.728 -11.634  0.00  0.00    +0.000 A 
ATOM      4  C   UNL     1     -29.054   7.857 -12.520  0.00  0.00    +0.000 A 
ATOM      5  C   UNL     1     -29.078   6.490 -12.276  0.00  0.00    +0.000 A 
ATOM      6  C   UNL     1     -28.441   5.944 -11.169  0.00  0.00    +0.000 A 
ATOM      7  C   UNL     1     -27.557   6.791 -10.515  0.00  0.00    +0.000 A 
ATOM      8  O   UNL     1     -26.722   6.247  -9.553  0.00  0.00    +0.000 OA
ATOM      9  C   UNL     1     -27.532   8.161 -10.753  0.00  0.00    +0.000 A 
ATOM     10  O   UNL     1     -26.821   9.038  -9.937  0.00  0.00    +0.000 OA
BRANCH   3  12
ATOM     11  C   UNL     1     -28.704  11.136 -12.111  0.00  0.00    +0.000 C 
ATOM     12  O   UNL     1     -28.995   9.976 -11.350  0.00  0.00    +0.000 OA
ENDBRANCH   3  12
ENDBRANCH   1   6
BRANCH   2  13
ATOM     13  C   UNL     1     -31.102   6.004 -10.154  0.00  0.00    +0.000 A 
ATOM     14  C   UNL     1     -32.390   6.142 -10.654  0.00  0.00    +0.000 A 
ATOM     15  C   UNL     1     -33.429   6.657  -9.889  0.00  0.00    +0.000 A 
ATOM     16  C   UNL     1     -33.210   7.002  -8.562  0.00  0.00    +0.000 A 
ATOM     17  C   UNL     1     -31.884   7.186  -8.189  0.00  0.00    +0.000 A 
ATOM     18  C   UNL     1     -30.849   6.688  -8.972  0.00  0.00    +0.000 A 
BRANCH  15  19
ATOM     19  O   UNL     1     -34.738   6.706 -10.325  0.00  0.00    +0.000 OA
ATOM     20  C   UNL     1     -35.344   7.805 -10.952  0.00  0.00    +0.000 C 
ENDBRANCH  15  19
BRANCH  16  21
ATOM     21  O   UNL     1     -34.156   6.751  -7.565  0.00  0.00    +0.000 OA
ATOM     22  C   UNL     1     -34.301   5.497  -6.935  0.00  0.00    +0.000 C 
ENDBRANCH  16  21
BRANCH  17  23
ATOM     23  O   UNL     1     -31.631   7.554  -6.870  0.00  0.00    +0.000 OA
ATOM     24  C   UNL     1     -30.494   8.297  -6.503  0.00  0.00    +0.000 C 
ENDBRANCH  17  23
ENDBRANCH   2  13
TORSDOF 6
ENDMDL
MODEL 5
REMARK VINA RESULT:      -5.1      2.853      7.318
REMARK  Name = 
REMARK  6 active torsions:
REMARK  status: ('A' for Active; 'I' for Inactive)
REMARK    1  A    between atoms: O_2  and  C_3
REMARK    2  A    between atoms: C_6  and  C_7
REMARK    3  A    between atoms: C_8  and  C_9
REMARK    4  A    between atoms: C_11  and  O_12
REMARK    5  A    between atoms: C_14  and  O_15
REMARK    6  A    between atoms: C_17  and  O_18
REMARK                            x       y       z     vdW  Elec       q    Type
REMARK                         _______ _______ _______ _____ _____    ______ ____
ROOT
ATOM      1  C   UNL     1     -37.145  -2.412  -5.112  0.00  0.00    +0.000 C 
ATOM      2  C   UNL     1     -36.019  -2.450  -4.399  0.00  0.00    +0.000 C 
ENDROOT
BRANCH   1   6
ATOM      3  C   UNL     1     -38.277  -1.676  -8.993  0.00  0.00    +0.000 A 
ATOM      4  C   UNL     1     -37.624  -2.869  -8.727  0.00  0.00    +0.000 A 
ATOM      5  C   UNL     1     -36.998  -3.086  -7.507  0.00  0.00    +0.000 A 
ATOM      6  C   UNL     1     -36.956  -2.095  -6.534  0.00  0.00    +0.000 A 
ATOM      7  C   UNL     1     -37.303  -0.822  -6.966  0.00  0.00    +0.000 A 
ATOM      8  O   UNL     1     -37.062   0.244  -6.116  0.00  0.00    +0.000 OA
ATOM      9  C   UNL     1     -37.932  -0.602  -8.186  0.00  0.00    +0.000 A 
ATOM     10  O   UNL     1     -38.491   0.631  -8.515  0.00  0.00    +0.000 OA
BRANCH   3  12
ATOM     11  C   UNL     1     -40.695  -2.142  -9.168  0.00  0.00    +0.000 C 
ATOM     12  O   UNL     1     -39.476  -1.653  -9.704  0.00  0.00    +0.000 OA
ENDBRANCH   3  12
ENDBRANCH   1   6
BRANCH   2  13
ATOM     13  C   UNL     1     -35.013  -3.394  -4.905  0.00  0.00    +0.000 A 
ATOM     14  C   UNL     1     -33.753  -2.880  -5.182  0.00  0.00    +0.000 A 
ATOM     15  C   UNL     1     -32.588  -3.564  -4.860  0.00  0.00    +0.000 A 
ATOM     16  C   UNL     1     -32.659  -4.780  -4.191  0.00  0.00    +0.000 A 
ATOM     17  C   UNL     1     -33.885  -5.431  -4.234  0.00  0.00    +0.000 A 
ATOM     18  C   UNL     1     -35.043  -4.744  -4.579  0.00  0.00    +0.000 A 
BRANCH  15  19
ATOM     19  O   UNL     1     -31.326  -3.031  -5.026  0.00  0.00    +0.000 OA
ATOM     20  C   UNL     1     -30.330  -3.551  -5.866  0.00  0.00    +0.000 C 
ENDBRANCH  15  19
BRANCH  16  21
ATOM     21  O   UNL     1     -31.752  -5.126  -3.186  0.00  0.00    +0.000 OA
ATOM     22  C   UNL     1     -31.813  -4.603  -1.877  0.00  0.00    +0.000 C 
ENDBRANCH  16  21
BRANCH  17  23
ATOM     23  O   UNL     1     -33.984  -6.663  -3.591  0.00  0.00    +0.000 OA
ATOM     24  C   UNL     1     -35.107  -7.498  -3.738  0.00  0.00    +0.000 C 
ENDBRANCH  17  23
ENDBRANCH   2  13
TORSDOF 6
ENDMDL
MODEL 6
REMARK VINA RESULT:      -5.0     14.888     16.784
REMARK  Name = 
REMARK  6 active torsions:
REMARK  status: ('A' for Active; 'I' for Inactive)
REMARK    1  A    between atoms: O_2  and  C_3
REMARK    2  A    between atoms: C_6  and  C_7
REMARK    3  A    between atoms: C_8  and  C_9
REMARK    4  A    between atoms: C_11  and  O_12
REMARK    5  A    between atoms: C_14  and  O_15
REMARK    6  A    between atoms: C_17  and  O_18
REMARK                            x       y       z     vdW  Elec       q    Type
REMARK                         _______ _______ _______ _____ _____    ______ ____
ROOT
ATOM      1  C   UNL     1     -24.379   5.142  -0.287  0.00  0.00    +0.000 C 
ATOM      2  C   UNL     1     -24.497   5.237  -1.611  0.00  0.00    +0.000 C 
ENDROOT
BRANCH   1   6
ATOM      3  C   UNL     1     -22.284   8.653   0.127  0.00  0.00    +0.000 A 
ATOM      4  C   UNL     1     -21.595   7.542  -0.334  0.00  0.00    +0.000 A 
ATOM      5  C   UNL     1     -22.158   6.274  -0.271  0.00  0.00    +0.000 A 
ATOM      6  C   UNL     1     -23.405   6.068   0.306  0.00  0.00    +0.000 A 
ATOM      7  C   UNL     1     -23.894   7.127   1.058  0.00  0.00    +0.000 A 
ATOM      8  O   UNL     1     -25.012   6.908   1.845  0.00  0.00    +0.000 OA
ATOM      9  C   UNL     1     -23.335   8.398   0.996  0.00  0.00    +0.000 A 
ATOM     10  O   UNL     1     -23.961   9.508   1.560  0.00  0.00    +0.000 OA
BRANCH   3  12
ATOM     11  C   UNL     1     -22.636  10.025  -1.894  0.00  0.00    +0.000 C 
ATOM     12  O   UNL     1     -22.221   9.871  -0.548  0.00  0.00    +0.000 OA
ENDBRANCH   3  12
ENDBRANCH   1   6
BRANCH   2  13
ATOM     13  C   UNL     1     -24.852   6.579  -2.094  0.00  0.00    +0.000 A 
ATOM     14  C   UNL     1     -24.194   7.032  -3.229  0.00  0.00    +0.000 A 
ATOM     15  C   UNL     1     -24.850   7.731  -4.235  0.00  0.00    +0.000 A 
ATOM     16  C   UNL     1     -26.219   7.949  -4.150  0.00  0.00    +0.000 A 
ATOM     17  C   UNL     1     -26.784   7.807  -2.889  0.00  0.00    +0.000 A 
ATOM     18  C   UNL     1     -26.111   7.126  -1.881  0.00  0.00    +0.000 A 
BRANCH  15  19
ATOM     19  O   UNL     1     -24.245   8.099  -5.420  0.00  0.00    +0.000 OA
ATOM     20  C   UNL     1     -23.747   9.377  -5.713  0.00  0.00    +0.000 C 
ENDBRANCH  15  19
BRANCH  16  21
ATOM     21  O   UNL     1     -27.052   7.871  -5.269  0.00  0.00    +0.000 OA
ATOM     22  C   UNL     1     -27.513   9.005  -5.971  0.00  0.00    +0.000 C 
ENDBRANCH  16  21
BRANCH  17  23
ATOM     23  O   UNL     1     -28.151   8.040  -2.765  0.00  0.00    +0.000 OA
ATOM     24  C   UNL     1     -28.667   9.284  -2.357  0.00  0.00    +0.000 C 
ENDBRANCH  17  23
ENDBRANCH   2  13
TORSDOF 6
ENDMDL
MODEL 7
REMARK VINA RESULT:      -5.0     34.482     37.296
REMARK  Name = 
REMARK  6 active torsions:
REMARK  status: ('A' for Active; 'I' for Inactive)
REMARK    1  A    between atoms: O_2  and  C_3
REMARK    2  A    between atoms: C_6  and  C_7
REMARK    3  A    between atoms: C_8  and  C_9
REMARK    4  A    between atoms: C_11  and  O_12
REMARK    5  A    between atoms: C_14  and  O_15
REMARK    6  A    between atoms: C_17  and  O_18
REMARK                            x       y       z     vdW  Elec       q    Type
REMARK                         _______ _______ _______ _____ _____    ______ ____
ROOT
ATOM      1  C   UNL     1     -11.766  17.561 -19.798  0.00  0.00    +0.000 C 
ATOM      2  C   UNL     1     -11.057  18.603 -20.230  0.00  0.00    +0.000 C 
ENDROOT
BRANCH   1   6
ATOM      3  C   UNL     1     -15.285  19.641 -19.380  0.00  0.00    +0.000 A 
ATOM      4  C   UNL     1     -14.303  19.836 -18.421  0.00  0.00    +0.000 A 
ATOM      5  C   UNL     1     -13.196  19.001 -18.352  0.00  0.00    +0.000 A 
ATOM      6  C   UNL     1     -13.062  17.910 -19.201  0.00  0.00    +0.000 A 
ATOM      7  C   UNL     1     -14.211  17.550 -19.892  0.00  0.00    +0.000 A 
ATOM      8  O   UNL     1     -14.213  16.344 -20.572  0.00  0.00    +0.000 OA
ATOM      9  C   UNL     1     -15.320  18.385 -19.966  0.00  0.00    +0.000 A 
ATOM     10  O   UNL     1     -16.373  18.135 -20.845  0.00  0.00    +0.000 OA
BRANCH   3  12
ATOM     11  C   UNL     1     -15.256  21.476 -21.031  0.00  0.00    +0.000 C 
ATOM     12  O   UNL     1     -15.896  20.721 -20.016  0.00  0.00    +0.000 OA
ENDBRANCH   3  12
ENDBRANCH   1   6
BRANCH   2  13
ATOM     13  C   UNL     1     -11.754  19.445 -21.213  0.00  0.00    +0.000 A 
ATOM     14  C   UNL     1     -11.615  20.819 -21.072  0.00  0.00    +0.000 A 
ATOM     15  C   UNL     1     -11.436  21.661 -22.162  0.00  0.00    +0.000 A 
ATOM     16  C   UNL     1     -11.336  21.129 -23.441  0.00  0.00    +0.000 A 
ATOM     17  C   UNL     1     -11.813  19.834 -23.604  0.00  0.00    +0.000 A 
ATOM     18  C   UNL     1     -12.011  19.006 -22.506  0.00  0.00    +0.000 A 
BRANCH  15  19
ATOM     19  O   UNL     1     -11.191  23.014 -22.043  0.00  0.00    +0.000 OA
ATOM     20  C   UNL     1     -12.163  24.024 -22.106  0.00  0.00    +0.000 C 
ENDBRANCH  15  19
BRANCH  16  21
ATOM     21  O   UNL     1     -10.440  21.636 -24.386  0.00  0.00    +0.000 OA
ATOM     22  C   UNL     1      -9.044  21.439 -24.311  0.00  0.00    +0.000 C 
ENDBRANCH  16  21
BRANCH  17  23
ATOM     23  O   UNL     1     -11.746  19.278 -24.879  0.00  0.00    +0.000 OA
ATOM     24  C   UNL     1     -12.812  19.369 -25.794  0.00  0.00    +0.000 C 
ENDBRANCH  17  23
ENDBRANCH   2  13
TORSDOF 6
ENDMDL
MODEL 8
REMARK VINA RESULT:      -5.0     14.731     17.155
REMARK  Name = 
REMARK  6 active torsions:
REMARK  status: ('A' for Active; 'I' for Inactive)
REMARK    1  A    between atoms: O_2  and  C_3
REMARK    2  A    between atoms: C_6  and  C_7
REMARK    3  A    between atoms: C_8  and  C_9
REMARK    4  A    between atoms: C_11  and  O_12
REMARK    5  A    between atoms: C_14  and  O_15
REMARK    6  A    between atoms: C_17  and  O_18
REMARK                            x       y       z     vdW  Elec       q    Type
REMARK                         _______ _______ _______ _____ _____    ______ ____
ROOT
ATOM      1  C   UNL     1     -26.317   8.827  -4.754  0.00  0.00    +0.000 C 
ATOM      2  C   UNL     1     -26.822   8.165  -5.795  0.00  0.00    +0.000 C 
ENDROOT
BRANCH   1   6
ATOM      3  C   UNL     1     -22.631   9.508  -3.070  0.00  0.00    +0.000 A 
ATOM      4  C   UNL     1     -22.880  10.057  -4.318  0.00  0.00    +0.000 A 
ATOM      5  C   UNL     1     -23.993   9.678  -5.056  0.00  0.00    +0.000 A 
ATOM      6  C   UNL     1     -24.862   8.696  -4.597  0.00  0.00    +0.000 A 
ATOM      7  C   UNL     1     -24.391   7.936  -3.535  0.00  0.00    +0.000 A 
ATOM      8  O   UNL     1     -25.100   6.800  -3.181  0.00  0.00    +0.000 OA
ATOM      9  C   UNL     1     -23.279   8.314  -2.791  0.00  0.00    +0.000 A 
ATOM     10  O   UNL     1     -22.948   7.689  -1.591  0.00  0.00    +0.000 OA
BRANCH   3  12
ATOM     11  C   UNL     1     -22.237  11.699  -2.004  0.00  0.00    +0.000 C 
ATOM     12  O   UNL     1     -22.130  10.286  -2.027  0.00  0.00    +0.000 OA
ENDBRANCH   3  12
ENDBRANCH   1   6
BRANCH   2  13
ATOM     13  C   UNL     1     -26.229   8.527  -7.090  0.00  0.00    +0.000 A 
ATOM     14  C   UNL     1     -26.129   7.518  -8.038  0.00  0.00    +0.000 A 
ATOM     15  C   UNL     1     -26.405   7.735  -9.382  0.00  0.00    +0.000 A 
ATOM     16  C   UNL     1     -26.849   8.980  -9.808  0.00  0.00    +0.000 A 
ATOM     17  C   UNL     1     -26.614  10.041  -8.942  0.00  0.00    +0.000 A 
ATOM     18  C   UNL     1     -26.316   9.815  -7.603  0.00  0.00    +0.000 A 
BRANCH  15  19
ATOM     19  O   UNL     1     -26.416   6.727 -10.326  0.00  0.00    +0.000 OA
ATOM     20  C   UNL     1     -27.398   5.732 -10.439  0.00  0.00    +0.000 C 
ENDBRANCH  15  19
BRANCH  16  21
ATOM     21  O   UNL     1     -27.837   9.120 -10.785  0.00  0.00    +0.000 OA
ATOM     22  C   UNL     1     -29.214   8.956 -10.521  0.00  0.00    +0.000 C 
ENDBRANCH  16  21
BRANCH  17  23
ATOM     23  O   UNL     1     -27.028  11.308  -9.348  0.00  0.00    +0.000 OA
ATOM     24  C   UNL     1     -27.165  12.378  -8.445  0.00  0.00    +0.000 C 
ENDBRANCH  17  23
ENDBRANCH   2  13
TORSDOF 6
ENDMDL
MODEL 9
REMARK VINA RESULT:      -4.9     14.095     16.744
REMARK  Name = 
REMARK  6 active torsions:
REMARK  status: ('A' for Active; 'I' for Inactive)
REMARK    1  A    between atoms: O_2  and  C_3
REMARK    2  A    between atoms: C_6  and  C_7
REMARK    3  A    between atoms: C_8  and  C_9
REMARK    4  A    between atoms: C_11  and  O_12
REMARK    5  A    between atoms: C_14  and  O_15
REMARK    6  A    between atoms: C_17  and  O_18
REMARK                            x       y       z     vdW  Elec       q    Type
REMARK                         _______ _______ _______ _____ _____    ______ ____
ROOT
ATOM      1  C   UNL     1     -22.104   6.533  -0.412  0.00  0.00    +0.000 C 
ATOM      2  C   UNL     1     -23.074   5.624  -0.316  0.00  0.00    +0.000 C 
ENDROOT
BRANCH   1   6
ATOM      3  C   UNL     1     -24.530   9.503  -1.888  0.00  0.00    +0.000 A 
ATOM      4  C   UNL     1     -24.144   8.496  -2.757  0.00  0.00    +0.000 A 
ATOM      5  C   UNL     1     -23.141   7.599  -2.412  0.00  0.00    +0.000 A 
ATOM      6  C   UNL     1     -22.453   7.715  -1.211  0.00  0.00    +0.000 A 
ATOM      7  C   UNL     1     -22.622   8.921  -0.544  0.00  0.00    +0.000 A 
ATOM      8  O   UNL     1     -21.792   9.194   0.531  0.00  0.00    +0.000 OA
ATOM      9  C   UNL     1     -23.626   9.820  -0.884  0.00  0.00    +0.000 A 
ATOM     10  O   UNL     1     -23.947  10.908  -0.076  0.00  0.00    +0.000 OA
BRANCH   3  12
ATOM     11  C   UNL     1     -26.800   9.770  -2.820  0.00  0.00    +0.000 C 
ATOM     12  O   UNL     1     -25.870   9.866  -1.755  0.00  0.00    +0.000 OA
ENDBRANCH   3  12
ENDBRANCH   1   6
BRANCH   2  13
ATOM     13  C   UNL     1     -24.336   6.140   0.233  0.00  0.00    +0.000 A 
ATOM     14  C   UNL     1     -25.504   5.763  -0.418  0.00  0.00    +0.000 A 
ATOM     15  C   UNL     1     -26.657   5.415   0.274  0.00  0.00    +0.000 A 
ATOM     16  C   UNL     1     -26.651   5.383   1.663  0.00  0.00    +0.000 A 
ATOM     17  C   UNL     1     -25.622   6.078   2.286  0.00  0.00    +0.000 A 
ATOM     18  C   UNL     1     -24.481   6.443   1.581  0.00  0.00    +0.000 A 
BRANCH  15  19
ATOM     19  O   UNL     1     -27.795   4.937  -0.343  0.00  0.00    +0.000 OA
ATOM     20  C   UNL     1     -28.757   5.723  -0.993  0.00  0.00    +0.000 C 
ENDBRANCH  15  19
BRANCH  16  21
ATOM     21  O   UNL     1     -27.321   4.392   2.384  0.00  0.00    +0.000 OA
ATOM     22  C   UNL     1     -28.553   4.610   3.037  0.00  0.00    +0.000 C 
ENDBRANCH  16  21
BRANCH  17  23
ATOM     23  O   UNL     1     -25.599   6.084   3.678  0.00  0.00    +0.000 OA
ATOM     24  C   UNL     1     -25.978   7.211   4.431  0.00  0.00    +0.000 C 
ENDBRANCH  17  23
ENDBRANCH   2  13
TORSDOF 6
ENDMDL
MODEL 10
REMARK VINA RESULT:      -4.8     13.116     15.146
REMARK  Name = 
REMARK  6 active torsions:
REMARK  status: ('A' for Active; 'I' for Inactive)
REMARK    1  A    between atoms: O_2  and  C_3
REMARK    2  A    between atoms: C_6  and  C_7
REMARK    3  A    between atoms: C_8  and  C_9
REMARK    4  A    between atoms: C_11  and  O_12
REMARK    5  A    between atoms: C_14  and  O_15
REMARK    6  A    between atoms: C_17  and  O_18
REMARK                            x       y       z     vdW  Elec       q    Type
REMARK                         _______ _______ _______ _____ _____    ______ ____
ROOT
ATOM      1  C   UNL     1     -28.625   6.099 -11.254  0.00  0.00    +0.000 C 
ATOM      2  C   UNL     1     -29.914   5.968 -11.565  0.00  0.00    +0.000 C 
ENDROOT
BRANCH   1   6
ATOM      3  C   UNL     1     -28.788  10.170 -10.724  0.00  0.00    +0.000 A 
ATOM      4  C   UNL     1     -28.783   9.690 -12.024  0.00  0.00    +0.000 A 
ATOM      5  C   UNL     1     -28.487   8.360 -12.293  0.00  0.00    +0.000 A 
ATOM      6  C   UNL     1     -28.130   7.482 -11.277  0.00  0.00    +0.000 A 
ATOM      7  C   UNL     1     -27.807   8.075 -10.065  0.00  0.00    +0.000 A 
ATOM      8  O   UNL     1     -27.225   7.287  -9.087  0.00  0.00    +0.000 OA
ATOM      9  C   UNL     1     -28.105   9.405  -9.790  0.00  0.00    +0.000 A 
ATOM     10  O   UNL     1     -28.000   9.934  -8.505  0.00  0.00    +0.000 OA
BRANCH   3  12
ATOM     11  C   UNL     1     -31.067  10.718  -9.950  0.00  0.00    +0.000 C 
ATOM     12  O   UNL     1     -29.745  11.092 -10.300  0.00  0.00    +0.000 OA
ENDBRANCH   3  12
ENDBRANCH   1   6
BRANCH   2  13
ATOM     13  C   UNL     1     -30.826   6.750 -10.718  0.00  0.00    +0.000 A 
ATOM     14  C   UNL     1     -31.752   7.553 -11.369  0.00  0.00    +0.000 A 
ATOM     15  C   UNL     1     -33.067   7.668 -10.935  0.00  0.00    +0.000 A 
ATOM     16  C   UNL     1     -33.506   6.923  -9.847  0.00  0.00    +0.000 A 
ATOM     17  C   UNL     1     -32.517   6.412  -9.016  0.00  0.00    +0.000 A 
ATOM     18  C   UNL     1     -31.199   6.322  -9.451  0.00  0.00    +0.000 A 
BRANCH  15  19
ATOM     19  O   UNL     1     -34.033   8.374 -11.622  0.00  0.00    +0.000 OA
ATOM     20  C   UNL     1     -33.816   9.561 -12.337  0.00  0.00    +0.000 C 
ENDBRANCH  15  19
BRANCH  16  21
ATOM     21  O   UNL     1     -34.776   6.341  -9.813  0.00  0.00    +0.000 OA
ATOM     22  C   UNL     1     -35.909   6.990  -9.276  0.00  0.00    +0.000 C 
ENDBRANCH  16  21
BRANCH  17  23
ATOM     23  O   UNL     1     -32.924   5.679  -7.905  0.00  0.00    +0.000 OA
ATOM     24  C   UNL     1     -33.375   6.295  -6.723  0.00  0.00    +0.000 C 
ENDBRANCH  17  23
ENDBRANCH   2  13
TORSDOF 6
ENDMDL
