MODEL 1
REMARK VINA RESULT:      -6.9      0.000      0.000
REMARK  Name = 
REMARK  6 active torsions:
REMARK  status: ('A' for Active; 'I' for Inactive)
REMARK    1  A    between atoms: O_2  and  C_3
REMARK    2  A    between atoms: C_8  and  O_9
REMARK    3  A    between atoms: C_12  and  C_13
REMARK    4  A    between atoms: C_15  and  O_16
REMARK    5  A    between atoms: C_18  and  O_19
REMARK    6  A    between atoms: C_22  and  O_23
REMARK                            x       y       z     vdW  Elec       q    Type
REMARK                         _______ _______ _______ _____ _____    ______ ____
ROOT
ATOM      1  C   UNL     1     -17.754  -0.553   7.468  0.00  0.00    +0.000 A 
ATOM      2  C   UNL     1     -18.502  -1.423   8.251  0.00  0.00    +0.000 A 
ATOM      3  C   UNL     1     -18.375  -2.788   8.023  0.00  0.00    +0.000 A 
ATOM      4  C   UNL     1     -17.657  -3.187   6.899  0.00  0.00    +0.000 A 
ATOM      5  C   UNL     1     -16.737  -2.341   6.293  0.00  0.00    +0.000 A 
ATOM      6  C   UNL     1     -16.643  -1.051   6.798  0.00  0.00    +0.000 A 
ATOM      7  C   UNL     1     -18.097  -4.560   6.637  0.00  0.00    +0.000 C 
ATOM      8  C   UNL     1     -17.994  -5.200   5.490  0.00  0.00    +0.000 C 
ATOM      9  C   UNL     1     -18.547  -5.108   7.915  0.00  0.00    +0.000 C 
ATOM     10  O   UNL     1     -18.537  -6.328   8.219  0.00  0.00    +0.000 OA
ATOM     11  N   UNL     1     -18.720  -3.964   8.759  0.00  0.00    +0.000 NA
ENDROOT
BRANCH   8  12
ATOM     12  C   UNL     1     -17.807  -6.657   5.491  0.00  0.00    +0.000 A 
ATOM     13  C   UNL     1     -18.893  -7.525   5.487  0.00  0.00    +0.000 A 
ATOM     14  C   UNL     1     -18.696  -8.887   5.340  0.00  0.00    +0.000 A 
ATOM     15  C   UNL     1     -17.439  -9.333   4.963  0.00  0.00    +0.000 A 
ATOM     16  C   UNL     1     -16.381  -8.436   4.882  0.00  0.00    +0.000 A 
ATOM     17  C   UNL     1     -16.715  -7.094   4.750  0.00  0.00    +0.000 A 
BRANCH  14  18
ATOM     18  O   UNL     1     -19.741  -9.783   5.144  0.00  0.00    +0.000 OA
ATOM     19  C   UNL     1     -20.621  -9.646   4.032  0.00  0.00    +0.000 C 
ENDBRANCH  14  18
BRANCH  15  20
ATOM     20  O   UNL     1     -17.126 -10.657   5.264  0.00  0.00    +0.000 OA
ATOM     21  C   UNL     1     -16.815 -11.578   4.239  0.00  0.00    +0.000 C 
ENDBRANCH  15  20
BRANCH  17  22
ATOM     22  O   UNL     1     -15.922  -6.215   4.007  0.00  0.00    +0.000 OA
ATOM     23  C   UNL     1     -15.860  -6.419   2.607  0.00  0.00    +0.000 C 
ENDBRANCH  17  22
ENDBRANCH   8  12
BRANCH   1  25
ATOM     24  C   UNL     1     -19.010   1.330   8.290  0.00  0.00    +0.000 C 
ATOM     25  O   UNL     1     -17.951   0.823   7.492  0.00  0.00    +0.000 OA
ENDBRANCH   1  25
BRANCH   6  26
ATOM     26  O   UNL     1     -15.492  -0.277   6.647  0.00  0.00    +0.000 OA
ATOM     27  C   UNL     1     -15.137   0.330   5.413  0.00  0.00    +0.000 C 
ENDBRANCH   6  26
TORSDOF 6
ENDMDL
MODEL 2
REMARK VINA RESULT:      -6.4      1.637      2.120
REMARK  Name = 
REMARK  6 active torsions:
REMARK  status: ('A' for Active; 'I' for Inactive)
REMARK    1  A    between atoms: O_2  and  C_3
REMARK    2  A    between atoms: C_8  and  O_9
REMARK    3  A    between atoms: C_12  and  C_13
REMARK    4  A    between atoms: C_15  and  O_16
REMARK    5  A    between atoms: C_18  and  O_19
REMARK    6  A    between atoms: C_22  and  O_23
REMARK                            x       y       z     vdW  Elec       q    Type
REMARK                         _______ _______ _______ _____ _____    ______ ____
ROOT
ATOM      1  C   UNL     1     -19.253  -2.640   8.136  0.00  0.00    +0.000 A 
ATOM      2  C   UNL     1     -19.586  -3.771   8.870  0.00  0.00    +0.000 A 
ATOM      3  C   UNL     1     -19.115  -5.002   8.431  0.00  0.00    +0.000 A 
ATOM      4  C   UNL     1     -18.507  -5.049   7.180  0.00  0.00    +0.000 A 
ATOM      5  C   UNL     1     -17.977  -3.907   6.594  0.00  0.00    +0.000 A 
ATOM      6  C   UNL     1     -18.172  -2.707   7.265  0.00  0.00    +0.000 A 
ATOM      7  C   UNL     1     -18.575  -6.456   6.778  0.00  0.00    +0.000 C 
ATOM      8  C   UNL     1     -18.484  -6.914   5.545  0.00  0.00    +0.000 C 
ATOM      9  C   UNL     1     -18.637  -7.242   8.008  0.00  0.00    +0.000 C 
ATOM     10  O   UNL     1     -18.232  -8.426   8.127  0.00  0.00    +0.000 OA
ATOM     11  N   UNL     1     -18.988  -6.297   9.025  0.00  0.00    +0.000 NA
ENDROOT
BRANCH   8  12
ATOM     12  C   UNL     1     -17.893  -8.238   5.310  0.00  0.00    +0.000 A 
ATOM     13  C   UNL     1     -18.639  -9.274   4.757  0.00  0.00    +0.000 A 
ATOM     14  C   UNL     1     -18.024 -10.464   4.408  0.00  0.00    +0.000 A 
ATOM     15  C   UNL     1     -16.639 -10.513   4.400  0.00  0.00    +0.000 A 
ATOM     16  C   UNL     1     -15.906  -9.431   4.872  0.00  0.00    +0.000 A 
ATOM     17  C   UNL     1     -16.561  -8.207   4.913  0.00  0.00    +0.000 A 
BRANCH  14  18
ATOM     18  O   UNL     1     -18.671 -11.463   3.687  0.00  0.00    +0.000 OA
ATOM     19  C   UNL     1     -19.508 -12.411   4.344  0.00  0.00    +0.000 C 
ENDBRANCH  14  18
BRANCH  15  20
ATOM     20  O   UNL     1     -16.055 -11.773   4.510  0.00  0.00    +0.000 OA
ATOM     21  C   UNL     1     -15.338 -12.334   3.431  0.00  0.00    +0.000 C 
ENDBRANCH  15  20
BRANCH  17  22
ATOM     22  O   UNL     1     -15.882  -7.008   4.684  0.00  0.00    +0.000 OA
ATOM     23  C   UNL     1     -15.634  -6.648   3.337  0.00  0.00    +0.000 C 
ENDBRANCH  17  22
ENDBRANCH   8  12
BRANCH   1  25
ATOM     24  C   UNL     1     -20.664  -0.838   7.384  0.00  0.00    +0.000 C 
ATOM     25  O   UNL     1     -19.827  -1.398   8.385  0.00  0.00    +0.000 OA
ENDBRANCH   1  25
BRANCH   6  26
ATOM     26  O   UNL     1     -17.329  -1.610   7.086  0.00  0.00    +0.000 OA
ATOM     27  C   UNL     1     -16.369  -1.548   6.040  0.00  0.00    +0.000 C 
ENDBRANCH   6  26
TORSDOF 6
ENDMDL
MODEL 3
REMARK VINA RESULT:      -6.0     18.322     21.323
REMARK  Name = 
REMARK  6 active torsions:
REMARK  status: ('A' for Active; 'I' for Inactive)
REMARK    1  A    between atoms: O_2  and  C_3
REMARK    2  A    between atoms: C_8  and  O_9
REMARK    3  A    between atoms: C_12  and  C_13
REMARK    4  A    between atoms: C_15  and  O_16
REMARK    5  A    between atoms: C_18  and  O_19
REMARK    6  A    between atoms: C_22  and  O_23
REMARK                            x       y       z     vdW  Elec       q    Type
REMARK                         _______ _______ _______ _____ _____    ______ ____
ROOT
ATOM      1  C   UNL     1     -31.049  -6.631  -2.969  0.00  0.00    +0.000 A 
ATOM      2  C   UNL     1     -30.597  -5.683  -3.878  0.00  0.00    +0.000 A 
ATOM      3  C   UNL     1     -31.533  -4.851  -4.480  0.00  0.00    +0.000 A 
ATOM      4  C   UNL     1     -32.879  -5.148  -4.282  0.00  0.00    +0.000 A 
ATOM      5  C   UNL     1     -33.295  -5.918  -3.204  0.00  0.00    +0.000 A 
ATOM      6  C   UNL     1     -32.303  -6.458  -2.397  0.00  0.00    +0.000 A 
ATOM      7  C   UNL     1     -33.581  -4.472  -5.377  0.00  0.00    +0.000 C 
ATOM      8  C   UNL     1     -34.785  -4.770  -5.824  0.00  0.00    +0.000 C 
ATOM      9  C   UNL     1     -32.744  -3.344  -5.779  0.00  0.00    +0.000 C 
ATOM     10  O   UNL     1     -33.170  -2.285  -6.306  0.00  0.00    +0.000 OA
ATOM     11  N   UNL     1     -31.461  -3.620  -5.205  0.00  0.00    +0.000 NA
ENDROOT
BRANCH   8  12
ATOM     12  C   UNL     1     -35.632  -3.704  -6.375  0.00  0.00    +0.000 A 
ATOM     13  C   UNL     1     -36.287  -3.858  -7.592  0.00  0.00    +0.000 A 
ATOM     14  C   UNL     1     -37.194  -2.905  -8.020  0.00  0.00    +0.000 A 
ATOM     15  C   UNL     1     -37.606  -1.936  -7.118  0.00  0.00    +0.000 A 
ATOM     16  C   UNL     1     -37.004  -1.853  -5.869  0.00  0.00    +0.000 A 
ATOM     17  C   UNL     1     -36.347  -2.991  -5.419  0.00  0.00    +0.000 A 
BRANCH  14  18
ATOM     18  O   UNL     1     -38.013  -3.088  -9.129  0.00  0.00    +0.000 OA
ATOM     19  C   UNL     1     -39.210  -3.855  -9.034  0.00  0.00    +0.000 C 
ENDBRANCH  14  18
BRANCH  15  20
ATOM     20  O   UNL     1     -38.121  -0.758  -7.655  0.00  0.00    +0.000 OA
ATOM     21  C   UNL     1     -37.360   0.431  -7.652  0.00  0.00    +0.000 C 
ENDBRANCH  15  20
BRANCH  17  22
ATOM     22  O   UNL     1     -36.313  -3.326  -4.063  0.00  0.00    +0.000 OA
ATOM     23  C   UNL     1     -37.554  -3.517  -3.409  0.00  0.00    +0.000 C 
ENDBRANCH  17  22
ENDBRANCH   8  12
BRANCH   1  25
ATOM     24  C   UNL     1     -29.048  -7.952  -3.192  0.00  0.00    +0.000 C 
ATOM     25  O   UNL     1     -30.221  -7.626  -2.461  0.00  0.00    +0.000 OA
ENDBRANCH   1  25
BRANCH   6  26
ATOM     26  O   UNL     1     -32.539  -6.815  -1.068  0.00  0.00    +0.000 OA
ATOM     27  C   UNL     1     -33.258  -7.986  -0.710  0.00  0.00    +0.000 C 
ENDBRANCH   6  26
TORSDOF 6
ENDMDL
MODEL 4
REMARK VINA RESULT:      -5.9     15.639     20.040
REMARK  Name = 
REMARK  6 active torsions:
REMARK  status: ('A' for Active; 'I' for Inactive)
REMARK    1  A    between atoms: O_2  and  C_3
REMARK    2  A    between atoms: C_8  and  O_9
REMARK    3  A    between atoms: C_12  and  C_13
REMARK    4  A    between atoms: C_15  and  O_16
REMARK    5  A    between atoms: C_18  and  O_19
REMARK    6  A    between atoms: C_22  and  O_23
REMARK                            x       y       z     vdW  Elec       q    Type
REMARK                         _______ _______ _______ _____ _____    ______ ____
ROOT
ATOM      1  C   UNL     1     -23.643   5.918  -1.107  0.00  0.00    +0.000 A 
ATOM      2  C   UNL     1     -24.216   6.052  -2.365  0.00  0.00    +0.000 A 
ATOM      3  C   UNL     1     -23.984   7.226  -3.072  0.00  0.00    +0.000 A 
ATOM      4  C   UNL     1     -23.356   8.269  -2.397  0.00  0.00    +0.000 A 
ATOM      5  C   UNL     1     -22.592   8.035  -1.261  0.00  0.00    +0.000 A 
ATOM      6  C   UNL     1     -22.568   6.734  -0.776  0.00  0.00    +0.000 A 
ATOM      7  C   UNL     1     -23.687   9.471  -3.166  0.00  0.00    +0.000 C 
ATOM      8  C   UNL     1     -23.647  10.710  -2.719  0.00  0.00    +0.000 C 
ATOM      9  C   UNL     1     -23.943   9.035  -4.537  0.00  0.00    +0.000 C 
ATOM     10  O   UNL     1     -23.784   9.748  -5.560  0.00  0.00    +0.000 OA
ATOM     11  N   UNL     1     -24.134   7.619  -4.438  0.00  0.00    +0.000 NA
ENDROOT
BRANCH   8  12
ATOM     12  C   UNL     1     -23.322  11.801  -3.648  0.00  0.00    +0.000 A 
ATOM     13  C   UNL     1     -24.318  12.594  -4.209  0.00  0.00    +0.000 A 
ATOM     14  C   UNL     1     -23.982  13.705  -4.962  0.00  0.00    +0.000 A 
ATOM     15  C   UNL     1     -22.665  14.138  -4.945  0.00  0.00    +0.000 A 
ATOM     16  C   UNL     1     -21.695  13.380  -4.301  0.00  0.00    +0.000 A 
ATOM     17  C   UNL     1     -22.146  12.478  -3.346  0.00  0.00    +0.000 A 
BRANCH  14  18
ATOM     18  O   UNL     1     -24.921  14.636  -5.393  0.00  0.00    +0.000 OA
ATOM     19  C   UNL     1     -25.496  15.567  -4.480  0.00  0.00    +0.000 C 
ENDBRANCH  14  18
BRANCH  15  20
ATOM     20  O   UNL     1     -22.249  14.922  -6.019  0.00  0.00    +0.000 OA
ATOM     21  C   UNL     1     -20.918  15.388  -6.100  0.00  0.00    +0.000 C 
ENDBRANCH  15  20
BRANCH  17  22
ATOM     22  O   UNL     1     -21.393  12.185  -2.206  0.00  0.00    +0.000 OA
ATOM     23  C   UNL     1     -21.480  13.088  -1.119  0.00  0.00    +0.000 C 
ENDBRANCH  17  22
ENDBRANCH   8  12
BRANCH   1  25
ATOM     24  C   UNL     1     -24.782   5.161   0.875  0.00  0.00    +0.000 C 
ATOM     25  O   UNL     1     -23.968   4.871  -0.251  0.00  0.00    +0.000 OA
ENDBRANCH   1  25
BRANCH   6  26
ATOM     26  O   UNL     1     -21.519   6.253   0.009  0.00  0.00    +0.000 OA
ATOM     27  C   UNL     1     -20.183   6.177  -0.467  0.00  0.00    +0.000 C 
ENDBRANCH   6  26
TORSDOF 6
ENDMDL
MODEL 5
REMARK VINA RESULT:      -5.8     22.396     24.957
REMARK  Name = 
REMARK  6 active torsions:
REMARK  status: ('A' for Active; 'I' for Inactive)
REMARK    1  A    between atoms: O_2  and  C_3
REMARK    2  A    between atoms: C_8  and  O_9
REMARK    3  A    between atoms: C_12  and  C_13
REMARK    4  A    between atoms: C_15  and  O_16
REMARK    5  A    between atoms: C_18  and  O_19
REMARK    6  A    between atoms: C_22  and  O_23
REMARK                            x       y       z     vdW  Elec       q    Type
REMARK                         _______ _______ _______ _____ _____    ______ ____
ROOT
ATOM      1  C   UNL     1       0.289   9.172  -9.152  0.00  0.00    +0.000 A 
ATOM      2  C   UNL     1      -1.027   8.755  -9.004  0.00  0.00    +0.000 A 
ATOM      3  C   UNL     1      -1.271   7.399  -8.819  0.00  0.00    +0.000 A 
ATOM      4  C   UNL     1      -0.201   6.525  -8.988  0.00  0.00    +0.000 A 
ATOM      5  C   UNL     1       1.113   6.967  -8.890  0.00  0.00    +0.000 A 
ATOM      6  C   UNL     1       1.306   8.331  -8.717  0.00  0.00    +0.000 A 
ATOM      7  C   UNL     1      -0.815   5.217  -9.230  0.00  0.00    +0.000 C 
ATOM      8  C   UNL     1      -0.235   4.187  -9.813  0.00  0.00    +0.000 C 
ATOM      9  C   UNL     1      -2.129   5.247  -8.594  0.00  0.00    +0.000 C 
ATOM     10  O   UNL     1      -2.742   4.237  -8.161  0.00  0.00    +0.000 OA
ATOM     11  N   UNL     1      -2.388   6.635  -8.358  0.00  0.00    +0.000 NA
ENDROOT
BRANCH   8  12
ATOM     12  C   UNL     1      -0.616   2.825  -9.414  0.00  0.00    +0.000 A 
ATOM     13  C   UNL     1      -0.920   1.853 -10.360  0.00  0.00    +0.000 A 
ATOM     14  C   UNL     1      -1.132   0.542  -9.968  0.00  0.00    +0.000 A 
ATOM     15  C   UNL     1      -0.804   0.181  -8.671  0.00  0.00    +0.000 A 
ATOM     16  C   UNL     1      -0.413   1.155  -7.760  0.00  0.00    +0.000 A 
ATOM     17  C   UNL     1       0.053   2.351  -8.291  0.00  0.00    +0.000 A 
BRANCH  14  18
ATOM     18  O   UNL     1      -1.256  -0.505 -10.876  0.00  0.00    +0.000 OA
ATOM     19  C   UNL     1      -0.102  -1.154 -11.402  0.00  0.00    +0.000 C 
ENDBRANCH  14  18
BRANCH  15  20
ATOM     20  O   UNL     1      -1.429  -0.954  -8.158  0.00  0.00    +0.000 OA
ATOM     21  C   UNL     1      -0.689  -1.932  -7.459  0.00  0.00    +0.000 C 
ENDBRANCH  15  20
BRANCH  17  22
ATOM     22  O   UNL     1       1.057   3.088  -7.658  0.00  0.00    +0.000 OA
ATOM     23  C   UNL     1       0.826   3.487  -6.319  0.00  0.00    +0.000 C 
ENDBRANCH  17  22
ENDBRANCH   8  12
BRANCH   1  25
ATOM     24  C   UNL     1      -0.439  11.349  -9.881  0.00  0.00    +0.000 C 
ATOM     25  O   UNL     1       0.618  10.470  -9.527  0.00  0.00    +0.000 OA
ENDBRANCH   1  25
BRANCH   6  26
ATOM     26  O   UNL     1       2.463   8.849  -8.134  0.00  0.00    +0.000 OA
ATOM     27  C   UNL     1       2.777   8.658  -6.762  0.00  0.00    +0.000 C 
ENDBRANCH   6  26
TORSDOF 6
ENDMDL
MODEL 6
REMARK VINA RESULT:      -5.7     19.212     22.008
REMARK  Name = 
REMARK  6 active torsions:
REMARK  status: ('A' for Active; 'I' for Inactive)
REMARK    1  A    between atoms: O_2  and  C_3
REMARK    2  A    between atoms: C_8  and  O_9
REMARK    3  A    between atoms: C_12  and  C_13
REMARK    4  A    between atoms: C_15  and  O_16
REMARK    5  A    between atoms: C_18  and  O_19
REMARK    6  A    between atoms: C_22  and  O_23
REMARK                            x       y       z     vdW  Elec       q    Type
REMARK                         _______ _______ _______ _____ _____    ______ ____
ROOT
ATOM      1  C   UNL     1     -30.423  -4.728  -5.009  0.00  0.00    +0.000 A 
ATOM      2  C   UNL     1     -30.943  -3.444  -5.098  0.00  0.00    +0.000 A 
ATOM      3  C   UNL     1     -32.303  -3.301  -5.348  0.00  0.00    +0.000 A 
ATOM      4  C   UNL     1     -33.018  -4.447  -5.685  0.00  0.00    +0.000 A 
ATOM      5  C   UNL     1     -32.549  -5.712  -5.354  0.00  0.00    +0.000 A 
ATOM      6  C   UNL     1     -31.294  -5.783  -4.766  0.00  0.00    +0.000 A 
ATOM      7  C   UNL     1     -34.225  -3.957  -6.356  0.00  0.00    +0.000 C 
ATOM      8  C   UNL     1     -34.992  -4.651  -7.173  0.00  0.00    +0.000 C 
ATOM      9  C   UNL     1     -34.470  -2.610  -5.847  0.00  0.00    +0.000 C 
ATOM     10  O   UNL     1     -35.598  -2.057  -5.787  0.00  0.00    +0.000 OA
ATOM     11  N   UNL     1     -33.237  -2.225  -5.228  0.00  0.00    +0.000 NA
ENDROOT
BRANCH   8  12
ATOM     12  C   UNL     1     -36.430  -4.360  -7.231  0.00  0.00    +0.000 A 
ATOM     13  C   UNL     1     -37.014  -3.826  -8.375  0.00  0.00    +0.000 A 
ATOM     14  C   UNL     1     -38.389  -3.698  -8.461  0.00  0.00    +0.000 A 
ATOM     15  C   UNL     1     -39.170  -4.322  -7.500  0.00  0.00    +0.000 A 
ATOM     16  C   UNL     1     -38.566  -4.932  -6.407  0.00  0.00    +0.000 A 
ATOM     17  C   UNL     1     -37.226  -5.272  -6.548  0.00  0.00    +0.000 A 
BRANCH  14  18
ATOM     18  O   UNL     1     -39.042  -3.347  -9.638  0.00  0.00    +0.000 OA
ATOM     19  C   UNL     1     -38.408  -2.511 -10.602  0.00  0.00    +0.000 C 
ENDBRANCH  14  18
BRANCH  15  20
ATOM     20  O   UNL     1     -40.458  -3.825  -7.318  0.00  0.00    +0.000 OA
ATOM     21  C   UNL     1     -40.860  -3.299  -6.070  0.00  0.00    +0.000 C 
ENDBRANCH  15  20
BRANCH  17  22
ATOM     22  O   UNL     1     -36.694  -6.408  -5.932  0.00  0.00    +0.000 OA
ATOM     23  C   UNL     1     -37.115  -7.670  -6.417  0.00  0.00    +0.000 C 
ENDBRANCH  17  22
ENDBRANCH   8  12
BRANCH   1  25
ATOM     24  C   UNL     1     -28.191  -3.867  -4.726  0.00  0.00    +0.000 C 
ATOM     25  O   UNL     1     -29.055  -4.972  -4.950  0.00  0.00    +0.000 OA
ENDBRANCH   1  25
BRANCH   6  26
ATOM     26  O   UNL     1     -30.910  -6.858  -3.963  0.00  0.00    +0.000 OA
ATOM     27  C   UNL     1     -31.102  -6.867  -2.556  0.00  0.00    +0.000 C 
ENDBRANCH   6  26
TORSDOF 6
ENDMDL
MODEL 7
REMARK VINA RESULT:      -5.6     16.381     19.076
REMARK  Name = 
REMARK  6 active torsions:
REMARK  status: ('A' for Active; 'I' for Inactive)
REMARK    1  A    between atoms: O_2  and  C_3
REMARK    2  A    between atoms: C_8  and  O_9
REMARK    3  A    between atoms: C_12  and  C_13
REMARK    4  A    between atoms: C_15  and  O_16
REMARK    5  A    between atoms: C_18  and  O_19
REMARK    6  A    between atoms: C_22  and  O_23
REMARK                            x       y       z     vdW  Elec       q    Type
REMARK                         _______ _______ _______ _____ _____    ______ ____
ROOT
ATOM      1  C   UNL     1      -0.188   0.697   3.159  0.00  0.00    +0.000 A 
ATOM      2  C   UNL     1      -1.305   0.020   3.631  0.00  0.00    +0.000 A 
ATOM      3  C   UNL     1      -1.700   0.238   4.945  0.00  0.00    +0.000 A 
ATOM      4  C   UNL     1      -0.842   0.968   5.761  0.00  0.00    +0.000 A 
ATOM      5  C   UNL     1       0.114   1.820   5.222  0.00  0.00    +0.000 A 
ATOM      6  C   UNL     1       0.238   1.831   3.840  0.00  0.00    +0.000 A 
ATOM      7  C   UNL     1      -1.233   0.622   7.130  0.00  0.00    +0.000 C 
ATOM      8  C   UNL     1      -0.485   0.755   8.206  0.00  0.00    +0.000 C 
ATOM      9  C   UNL     1      -2.639   0.226   7.076  0.00  0.00    +0.000 C 
ATOM     10  O   UNL     1      -3.451   0.324   8.031  0.00  0.00    +0.000 OA
ATOM     11  N   UNL     1      -2.895  -0.016   5.688  0.00  0.00    +0.000 NA
ENDROOT
BRANCH   8  12
ATOM     12  C   UNL     1      -1.124   1.042   9.497  0.00  0.00    +0.000 A 
ATOM     13  C   UNL     1      -1.031   0.154  10.563  0.00  0.00    +0.000 A 
ATOM     14  C   UNL     1      -1.513   0.510  11.811  0.00  0.00    +0.000 A 
ATOM     15  C   UNL     1      -1.865   1.833  12.028  0.00  0.00    +0.000 A 
ATOM     16  C   UNL     1      -1.865   2.732  10.968  0.00  0.00    +0.000 A 
ATOM     17  C   UNL     1      -1.103   2.384   9.859  0.00  0.00    +0.000 A 
BRANCH  14  18
ATOM     18  O   UNL     1      -1.287  -0.252  12.952  0.00  0.00    +0.000 OA
ATOM     19  C   UNL     1      -0.078  -0.990  13.109  0.00  0.00    +0.000 C 
ENDBRANCH  14  18
BRANCH  15  20
ATOM     20  O   UNL     1      -2.752   2.084  13.073  0.00  0.00    +0.000 OA
ATOM     21  C   UNL     1      -2.314   2.720  14.255  0.00  0.00    +0.000 C 
ENDBRANCH  15  20
BRANCH  17  22
ATOM     22  O   UNL     1      -0.454   3.351   9.088  0.00  0.00    +0.000 OA
ATOM     23  C   UNL     1       0.358   4.290   9.769  0.00  0.00    +0.000 C 
ENDBRANCH  17  22
ENDBRANCH   8  12
BRANCH   1  25
ATOM     24  C   UNL     1       0.878  -0.912   1.719  0.00  0.00    +0.000 C 
ATOM     25  O   UNL     1       0.392   0.405   1.929  0.00  0.00    +0.000 OA
ENDBRANCH   1  25
BRANCH   6  26
ATOM     26  O   UNL     1       0.764   2.924   3.150  0.00  0.00    +0.000 OA
ATOM     27  C   UNL     1       0.082   4.166   3.054  0.00  0.00    +0.000 C 
ENDBRANCH   6  26
TORSDOF 6
ENDMDL
MODEL 8
REMARK VINA RESULT:      -5.6     29.571     32.650
REMARK  Name = 
REMARK  6 active torsions:
REMARK  status: ('A' for Active; 'I' for Inactive)
REMARK    1  A    between atoms: O_2  and  C_3
REMARK    2  A    between atoms: C_8  and  O_9
REMARK    3  A    between atoms: C_12  and  C_13
REMARK    4  A    between atoms: C_15  and  O_16
REMARK    5  A    between atoms: C_18  and  O_19
REMARK    6  A    between atoms: C_22  and  O_23
REMARK                            x       y       z     vdW  Elec       q    Type
REMARK                         _______ _______ _______ _____ _____    ______ ____
ROOT
ATOM      1  C   UNL     1     -16.337  -7.925 -28.559  0.00  0.00    +0.000 A 
ATOM      2  C   UNL     1     -15.872  -8.213 -27.283  0.00  0.00    +0.000 A 
ATOM      3  C   UNL     1     -16.739  -8.835 -26.392  0.00  0.00    +0.000 A 
ATOM      4  C   UNL     1     -18.073  -8.953 -26.770  0.00  0.00    +0.000 A 
ATOM      5  C   UNL     1     -18.452  -8.890 -28.106  0.00  0.00    +0.000 A 
ATOM      6  C   UNL     1     -17.455  -8.604 -29.028  0.00  0.00    +0.000 A 
ATOM      7  C   UNL     1     -18.806  -9.159 -25.518  0.00  0.00    +0.000 C 
ATOM      8  C   UNL     1     -20.092  -8.942 -25.330  0.00  0.00    +0.000 C 
ATOM      9  C   UNL     1     -17.865  -9.762 -24.577  0.00  0.00    +0.000 C 
ATOM     10  O   UNL     1     -18.186 -10.507 -23.616  0.00  0.00    +0.000 OA
ATOM     11  N   UNL     1     -16.575  -9.531 -25.154  0.00  0.00    +0.000 NA
ENDROOT
BRANCH   8  12
ATOM     12  C   UNL     1     -20.828  -9.770 -24.364  0.00  0.00    +0.000 A 
ATOM     13  C   UNL     1     -21.645  -9.196 -23.396  0.00  0.00    +0.000 A 
ATOM     14  C   UNL     1     -22.441  -9.996 -22.594  0.00  0.00    +0.000 A 
ATOM     15  C   UNL     1     -22.584 -11.333 -22.933  0.00  0.00    +0.000 A 
ATOM     16  C   UNL     1     -21.826 -11.870 -23.966  0.00  0.00    +0.000 A 
ATOM     17  C   UNL     1     -21.300 -10.969 -24.883  0.00  0.00    +0.000 A 
BRANCH  14  18
ATOM     18  O   UNL     1     -23.410  -9.480 -21.740  0.00  0.00    +0.000 OA
ATOM     19  C   UNL     1     -24.206  -8.364 -22.130  0.00  0.00    +0.000 C 
ENDBRANCH  14  18
BRANCH  15  20
ATOM     20  O   UNL     1     -22.975 -12.199 -21.914  0.00  0.00    +0.000 OA
ATOM     21  C   UNL     1     -22.993 -13.596 -22.121  0.00  0.00    +0.000 C 
ENDBRANCH  15  20
BRANCH  17  22
ATOM     22  O   UNL     1     -21.150 -11.306 -26.231  0.00  0.00    +0.000 OA
ATOM     23  C   UNL     1     -20.350 -12.434 -26.535  0.00  0.00    +0.000 C 
ENDBRANCH  17  22
ENDBRANCH   8  12
BRANCH   1  25
ATOM     24  C   UNL     1     -14.298  -7.555 -29.786  0.00  0.00    +0.000 C 
ATOM     25  O   UNL     1     -15.615  -7.142 -29.453  0.00  0.00    +0.000 OA
ENDBRANCH   1  25
BRANCH   6  26
ATOM     26  O   UNL     1     -17.557  -8.975 -30.370  0.00  0.00    +0.000 OA
ATOM     27  C   UNL     1     -16.955 -10.155 -30.883  0.00  0.00    +0.000 C 
ENDBRANCH   6  26
TORSDOF 6
ENDMDL
MODEL 9
REMARK VINA RESULT:      -5.5     23.120     26.407
REMARK  Name = 
REMARK  6 active torsions:
REMARK  status: ('A' for Active; 'I' for Inactive)
REMARK    1  A    between atoms: O_2  and  C_3
REMARK    2  A    between atoms: C_8  and  O_9
REMARK    3  A    between atoms: C_12  and  C_13
REMARK    4  A    between atoms: C_15  and  O_16
REMARK    5  A    between atoms: C_18  and  O_19
REMARK    6  A    between atoms: C_22  and  O_23
REMARK                            x       y       z     vdW  Elec       q    Type
REMARK                         _______ _______ _______ _____ _____    ______ ____
ROOT
ATOM      1  C   UNL     1      -0.996   0.137 -10.041  0.00  0.00    +0.000 A 
ATOM      2  C   UNL     1      -0.455   0.920 -11.052  0.00  0.00    +0.000 A 
ATOM      3  C   UNL     1      -0.058   2.215 -10.739  0.00  0.00    +0.000 A 
ATOM      4  C   UNL     1      -0.407   2.709  -9.485  0.00  0.00    +0.000 A 
ATOM      5  C   UNL     1      -0.716   1.854  -8.434  0.00  0.00    +0.000 A 
ATOM      6  C   UNL     1      -0.756   0.496  -8.720  0.00  0.00    +0.000 A 
ATOM      7  C   UNL     1      -0.326   4.166  -9.616  0.00  0.00    +0.000 C 
ATOM      8  C   UNL     1      -0.922   5.047  -8.837  0.00  0.00    +0.000 C 
ATOM      9  C   UNL     1       0.631   4.438 -10.685  0.00  0.00    +0.000 C 
ATOM     10  O   UNL     1       1.324   5.483 -10.782  0.00  0.00    +0.000 OA
ATOM     11  N   UNL     1       0.769   3.192 -11.376  0.00  0.00    +0.000 NA
ENDROOT
BRANCH   8  12
ATOM     12  C   UNL     1      -0.283   6.349  -8.602  0.00  0.00    +0.000 A 
ATOM     13  C   UNL     1      -0.876   7.532  -9.030  0.00  0.00    +0.000 A 
ATOM     14  C   UNL     1      -0.332   8.753  -8.669  0.00  0.00    +0.000 A 
ATOM     15  C   UNL     1       0.654   8.773  -7.695  0.00  0.00    +0.000 A 
ATOM     16  C   UNL     1       1.173   7.578  -7.211  0.00  0.00    +0.000 A 
ATOM     17  C   UNL     1       0.390   6.444  -7.390  0.00  0.00    +0.000 A 
BRANCH  14  18
ATOM     18  O   UNL     1      -0.974   9.963  -8.907  0.00  0.00    +0.000 OA
ATOM     19  C   UNL     1      -1.064  10.495 -10.226  0.00  0.00    +0.000 C 
ENDBRANCH  14  18
BRANCH  15  20
ATOM     20  O   UNL     1       1.494   9.884  -7.675  0.00  0.00    +0.000 OA
ATOM     21  C   UNL     1       2.543  10.014  -8.613  0.00  0.00    +0.000 C 
ENDBRANCH  15  20
BRANCH  17  22
ATOM     22  O   UNL     1       0.381   5.409  -6.452  0.00  0.00    +0.000 OA
ATOM     23  C   UNL     1       1.624   4.814  -6.127  0.00  0.00    +0.000 C 
ENDBRANCH  17  22
ENDBRANCH   8  12
BRANCH   1  25
ATOM     24  C   UNL     1      -0.933  -1.979 -11.190  0.00  0.00    +0.000 C 
ATOM     25  O   UNL     1      -1.591  -1.095 -10.294  0.00  0.00    +0.000 OA
ENDBRANCH   1  25
BRANCH   6  26
ATOM     26  O   UNL     1      -0.567  -0.476  -7.737  0.00  0.00    +0.000 OA
ATOM     27  C   UNL     1       0.325  -0.294  -6.646  0.00  0.00    +0.000 C 
ENDBRANCH   6  26
TORSDOF 6
ENDMDL
MODEL 10
REMARK VINA RESULT:      -5.4     18.538     21.305
REMARK  Name = 
REMARK  6 active torsions:
REMARK  status: ('A' for Active; 'I' for Inactive)
REMARK    1  A    between atoms: O_2  and  C_3
REMARK    2  A    between atoms: C_8  and  O_9
REMARK    3  A    between atoms: C_12  and  C_13
REMARK    4  A    between atoms: C_15  and  O_16
REMARK    5  A    between atoms: C_18  and  O_19
REMARK    6  A    between atoms: C_22  and  O_23
REMARK                            x       y       z     vdW  Elec       q    Type
REMARK                         _______ _______ _______ _____ _____    ______ ____
ROOT
ATOM      1  C   UNL     1     -39.702  -3.904  -3.421  0.00  0.00    +0.000 A 
ATOM      2  C   UNL     1     -38.917  -2.759  -3.422  0.00  0.00    +0.000 A 
ATOM      3  C   UNL     1     -37.593  -2.870  -3.830  0.00  0.00    +0.000 A 
ATOM      4  C   UNL     1     -37.085  -4.151  -4.023  0.00  0.00    +0.000 A 
ATOM      5  C   UNL     1     -37.927  -5.232  -4.254  0.00  0.00    +0.000 A 
ATOM      6  C   UNL     1     -39.292  -4.992  -4.182  0.00  0.00    +0.000 A 
ATOM      7  C   UNL     1     -35.630  -3.999  -3.946  0.00  0.00    +0.000 C 
ATOM      8  C   UNL     1     -34.764  -4.958  -3.688  0.00  0.00    +0.000 C 
ATOM      9  C   UNL     1     -35.332  -2.621  -4.330  0.00  0.00    +0.000 C 
ATOM     10  O   UNL     1     -34.251  -2.235  -4.844  0.00  0.00    +0.000 OA
ATOM     11  N   UNL     1     -36.587  -1.938  -4.237  0.00  0.00    +0.000 NA
ENDROOT
BRANCH   8  12
ATOM     12  C   UNL     1     -33.421  -4.895  -4.279  0.00  0.00    +0.000 A 
ATOM     13  C   UNL     1     -32.286  -5.178  -3.528  0.00  0.00    +0.000 A 
ATOM     14  C   UNL     1     -31.047  -5.256  -4.140  0.00  0.00    +0.000 A 
ATOM     15  C   UNL     1     -30.997  -5.284  -5.525  0.00  0.00    +0.000 A 
ATOM     16  C   UNL     1     -32.159  -5.090  -6.263  0.00  0.00    +0.000 A 
ATOM     17  C   UNL     1     -33.359  -5.318  -5.602  0.00  0.00    +0.000 A 
BRANCH  14  18
ATOM     18  O   UNL     1     -29.910  -5.714  -3.483  0.00  0.00    +0.000 OA
ATOM     19  C   UNL     1     -29.912  -6.969  -2.809  0.00  0.00    +0.000 C 
ENDBRANCH  14  18
BRANCH  15  20
ATOM     20  O   UNL     1     -29.797  -4.899  -6.117  0.00  0.00    +0.000 OA
ATOM     21  C   UNL     1     -29.401  -3.544  -6.135  0.00  0.00    +0.000 C 
ENDBRANCH  15  20
BRANCH  17  22
ATOM     22  O   UNL     1     -34.473  -5.832  -6.271  0.00  0.00    +0.000 OA
ATOM     23  C   UNL     1     -34.897  -5.161  -7.443  0.00  0.00    +0.000 C 
ENDBRANCH  17  22
ENDBRANCH   8  12
BRANCH   1  25
ATOM     24  C   UNL     1     -41.159  -4.694  -1.673  0.00  0.00    +0.000 C 
ATOM     25  O   UNL     1     -40.973  -3.932  -2.856  0.00  0.00    +0.000 OA
ENDBRANCH   1  25
BRANCH   6  26
ATOM     26  O   UNL     1     -40.224  -5.797  -4.839  0.00  0.00    +0.000 OA
ATOM     27  C   UNL     1     -40.217  -5.978  -6.248  0.00  0.00    +0.000 C 
ENDBRANCH   6  26
TORSDOF 6
ENDMDL
