MODEL 1
REMARK VINA RESULT:      -8.2      0.000      0.000
REMARK  Name = 
REMARK  8 active torsions:
REMARK  status: ('A' for Active; 'I' for Inactive)
REMARK    1  A    between atoms: C_2  and  C_3
REMARK    2  A    between atoms: C_5  and  O_6
REMARK    3  A    between atoms: O_6  and  C_7
REMARK    4  A    between atoms: C_10  and  C_11
REMARK    5  A    between atoms: C_12  and  C_13
REMARK    6  A    between atoms: C_18  and  O_19
REMARK    7  A    between atoms: O_19  and  C_20
REMARK    8  A    between atoms: C_22  and  C_23
REMARK                            x       y       z     vdW  Elec       q    Type
REMARK                         _______ _______ _______ _____ _____    ______ ____
ROOT
ATOM      1  C   UNL     1     -26.053   8.837  -4.966  0.00  0.00    +0.000 C 
ATOM      2  C   UNL     1     -25.599   9.331  -3.850  0.00  0.00    +0.000 C 
ENDROOT
BRANCH   1   6
ATOM      3  C   UNL     1     -26.650   9.027  -8.976  0.00  0.00    +0.000 A 
ATOM      4  C   UNL     1     -26.820  10.232  -8.301  0.00  0.00    +0.000 A 
ATOM      5  C   UNL     1     -26.492  10.311  -6.947  0.00  0.00    +0.000 A 
ATOM      6  C   UNL     1     -25.736   9.331  -6.312  0.00  0.00    +0.000 A 
ATOM      7  C   UNL     1     -25.045   8.527  -7.213  0.00  0.00    +0.000 A 
ATOM      8  O   UNL     1     -24.303   7.495  -6.668  0.00  0.00    +0.000 OA
ATOM      9  C   UNL     1     -25.516   8.367  -8.512  0.00  0.00    +0.000 A 
BRANCH   3  10
ATOM     10  O   UNL     1     -27.718   8.365  -9.604  0.00  0.00    +0.000 OA
BRANCH  10  13
ATOM     11  C   UNL     1     -30.555   8.011 -10.677  0.00  0.00    +0.000 C 
ATOM     12  O   UNL     1     -29.947   9.133  -9.917  0.00  0.00    +0.000 OA
ATOM     13  C   UNL     1     -28.534   9.525 -10.346  0.00  0.00    +0.000 C 
ATOM     14  C   UNL     1     -28.394   8.785 -11.948  0.00  0.00    +0.000 C 
ATOM     15  O   UNL     1     -29.794   9.213 -12.395  0.00  0.00    +0.000 OA
ATOM     16  C   UNL     1     -28.773   7.110 -11.765  0.00  0.00    +0.000 C 
ATOM     17  O   UNL     1     -27.313   6.741 -11.476  0.00  0.00    +0.000 OA
ATOM     18  C   UNL     1     -29.208   7.051 -10.107  0.00  0.00    +0.000 C 
ATOM     19  O   UNL     1     -29.980   5.768 -10.356  0.00  0.00    +0.000 OA
BRANCH  11  21
ATOM     20  O   UNL     1     -31.976   8.033  -9.358  0.00  0.00    +0.000 OA
ATOM     21  C   UNL     1     -31.474   7.566  -9.330  0.00  0.00    +0.000 C 
ENDBRANCH  11  21
ENDBRANCH  10  13
ENDBRANCH   3  10
ENDBRANCH   1   6
BRANCH   2  22
ATOM     22  C   UNL     1     -24.797   8.617  -2.866  0.00  0.00    +0.000 A 
ATOM     23  C   UNL     1     -23.606   9.094  -2.342  0.00  0.00    +0.000 A 
ATOM     24  C   UNL     1     -22.763   8.290  -1.583  0.00  0.00    +0.000 A 
ATOM     25  O   UNL     1     -21.453   8.674  -1.279  0.00  0.00    +0.000 OA
ATOM     26  C   UNL     1     -23.254   7.023  -1.297  0.00  0.00    +0.000 A 
ATOM     27  C   UNL     1     -24.265   6.438  -2.029  0.00  0.00    +0.000 A 
ATOM     28  C   UNL     1     -25.117   7.276  -2.683  0.00  0.00    +0.000 A 
BRANCH  27  29
ATOM     29  O   UNL     1     -24.322   5.051  -2.048  0.00  0.00    +0.000 OA
BRANCH  29  30
ATOM     30  C   UNL     1     -25.856   4.664  -1.876  0.00  0.00    +0.000 C 
ATOM     31  O   UNL     1     -25.841   4.976  -0.364  0.00  0.00    +0.000 OA
ATOM     32  C   UNL     1     -27.215   4.338  -0.627  0.00  0.00    +0.000 C 
ATOM     33  C   UNL     1     -26.793   3.198   0.600  0.00  0.00    +0.000 C 
ATOM     34  O   UNL     1     -27.627   2.055   0.035  0.00  0.00    +0.000 OA
ATOM     35  C   UNL     1     -25.318   2.595  -0.095  0.00  0.00    +0.000 C 
ATOM     36  O   UNL     1     -24.444   3.805   0.269  0.00  0.00    +0.000 OA
ATOM     37  C   UNL     1     -25.447   2.951  -1.785  0.00  0.00    +0.000 C 
ATOM     38  O   UNL     1     -26.886   2.474  -1.966  0.00  0.00    +0.000 OA
BRANCH  32  39
ATOM     39  C   UNL     1     -27.919   5.340   0.517  0.00  0.00    +0.000 C 
ATOM     40  O   UNL     1     -28.150   6.481  -0.267  0.00  0.00    +0.000 OA
ENDBRANCH  32  39
ENDBRANCH  29  30
ENDBRANCH  27  29
ENDBRANCH   2  22
TORSDOF 8
ENDMDL
MODEL 2
REMARK VINA RESULT:      -8.0     15.878     19.123
REMARK  Name = 
REMARK  8 active torsions:
REMARK  status: ('A' for Active; 'I' for Inactive)
REMARK    1  A    between atoms: C_2  and  C_3
REMARK    2  A    between atoms: C_5  and  O_6
REMARK    3  A    between atoms: O_6  and  C_7
REMARK    4  A    between atoms: C_10  and  C_11
REMARK    5  A    between atoms: C_12  and  C_13
REMARK    6  A    between atoms: C_18  and  O_19
REMARK    7  A    between atoms: O_19  and  C_20
REMARK    8  A    between atoms: C_22  and  C_23
REMARK                            x       y       z     vdW  Elec       q    Type
REMARK                         _______ _______ _______ _____ _____    ______ ____
ROOT
ATOM      1  C   UNL     1     -21.021  -5.769   9.093  0.00  0.00    +0.000 C 
ATOM      2  C   UNL     1     -22.201  -5.228   8.993  0.00  0.00    +0.000 C 
ENDROOT
BRANCH   1   6
ATOM      3  C   UNL     1     -18.508  -2.585   9.239  0.00  0.00    +0.000 A 
ATOM      4  C   UNL     1     -19.058  -2.953  10.463  0.00  0.00    +0.000 A 
ATOM      5  C   UNL     1     -19.813  -4.123  10.551  0.00  0.00    +0.000 A 
ATOM      6  C   UNL     1     -19.802  -5.086   9.546  0.00  0.00    +0.000 A 
ATOM      7  C   UNL     1     -18.712  -4.950   8.692  0.00  0.00    +0.000 A 
ATOM      8  O   UNL     1     -18.648  -5.839   7.635  0.00  0.00    +0.000 OA
ATOM      9  C   UNL     1     -18.099  -3.711   8.533  0.00  0.00    +0.000 A 
BRANCH   3  10
ATOM     10  O   UNL     1     -18.815  -1.363   8.619  0.00  0.00    +0.000 OA
BRANCH  10  13
ATOM     11  C   UNL     1     -18.283   0.137   6.013  0.00  0.00    +0.000 C 
ATOM     12  O   UNL     1     -18.335  -1.321   6.290  0.00  0.00    +0.000 OA
ATOM     13  C   UNL     1     -19.463  -1.773   7.214  0.00  0.00    +0.000 C 
ATOM     14  C   UNL     1     -20.575  -0.396   7.172  0.00  0.00    +0.000 C 
ATOM     15  O   UNL     1     -20.460  -0.200   5.658  0.00  0.00    +0.000 OA
ATOM     16  C   UNL     1     -19.660   1.005   7.600  0.00  0.00    +0.000 C 
ATOM     17  O   UNL     1     -19.954   0.824   9.094  0.00  0.00    +0.000 OA
ATOM     18  C   UNL     1     -18.085   0.338   7.739  0.00  0.00    +0.000 C 
ATOM     19  O   UNL     1     -17.485   1.718   7.538  0.00  0.00    +0.000 OA
BRANCH  11  21
ATOM     20  O   UNL     1     -16.568  -0.098   5.139  0.00  0.00    +0.000 OA
ATOM     21  C   UNL     1     -16.607   0.062   5.805  0.00  0.00    +0.000 C 
ENDBRANCH  11  21
ENDBRANCH  10  13
ENDBRANCH   3  10
ENDBRANCH   1   6
BRANCH   2  22
ATOM     22  C   UNL     1     -23.397  -5.650   9.708  0.00  0.00    +0.000 A 
ATOM     23  C   UNL     1     -23.863  -6.954   9.738  0.00  0.00    +0.000 A 
ATOM     24  C   UNL     1     -25.120  -7.274  10.239  0.00  0.00    +0.000 A 
ATOM     25  O   UNL     1     -25.699  -8.530  10.033  0.00  0.00    +0.000 OA
ATOM     26  C   UNL     1     -25.817  -6.216  10.806  0.00  0.00    +0.000 A 
ATOM     27  C   UNL     1     -25.517  -4.899  10.530  0.00  0.00    +0.000 A 
ATOM     28  C   UNL     1     -24.243  -4.629  10.127  0.00  0.00    +0.000 A 
BRANCH  27  29
ATOM     29  O   UNL     1     -26.533  -3.965  10.675  0.00  0.00    +0.000 OA
BRANCH  29  30
ATOM     30  C   UNL     1     -26.626  -3.185   9.291  0.00  0.00    +0.000 C 
ATOM     31  O   UNL     1     -27.107  -1.886   9.971  0.00  0.00    +0.000 OA
ATOM     32  C   UNL     1     -27.232  -1.617   8.462  0.00  0.00    +0.000 C 
ATOM     33  C   UNL     1     -28.886  -1.239   8.782  0.00  0.00    +0.000 C 
ATOM     34  O   UNL     1     -29.401  -1.653   7.409  0.00  0.00    +0.000 OA
ATOM     35  C   UNL     1     -29.362  -2.738   9.521  0.00  0.00    +0.000 C 
ATOM     36  O   UNL     1     -28.700  -2.482  10.883  0.00  0.00    +0.000 OA
ATOM     37  C   UNL     1     -28.204  -3.897   8.958  0.00  0.00    +0.000 C 
ATOM     38  O   UNL     1     -28.219  -3.476   7.490  0.00  0.00    +0.000 OA
BRANCH  32  39
ATOM     39  C   UNL     1     -26.799  -0.015   8.694  0.00  0.00    +0.000 C 
ATOM     40  O   UNL     1     -25.587   0.016   7.987  0.00  0.00    +0.000 OA
ENDBRANCH  32  39
ENDBRANCH  29  30
ENDBRANCH  27  29
ENDBRANCH   2  22
TORSDOF 8
ENDMDL
MODEL 3
REMARK VINA RESULT:      -8.0     14.088     18.365
REMARK  Name = 
REMARK  8 active torsions:
REMARK  status: ('A' for Active; 'I' for Inactive)
REMARK    1  A    between atoms: C_2  and  C_3
REMARK    2  A    between atoms: C_5  and  O_6
REMARK    3  A    between atoms: O_6  and  C_7
REMARK    4  A    between atoms: C_10  and  C_11
REMARK    5  A    between atoms: C_12  and  C_13
REMARK    6  A    between atoms: C_18  and  O_19
REMARK    7  A    between atoms: O_19  and  C_20
REMARK    8  A    between atoms: C_22  and  C_23
REMARK                            x       y       z     vdW  Elec       q    Type
REMARK                         _______ _______ _______ _____ _____    ______ ____
ROOT
ATOM      1  C   UNL     1     -20.805  -6.094   9.691  0.00  0.00    +0.000 C 
ATOM      2  C   UNL     1     -21.594  -6.113   8.656  0.00  0.00    +0.000 C 
ENDROOT
BRANCH   1   6
ATOM      3  C   UNL     1     -18.732  -2.676   8.982  0.00  0.00    +0.000 A 
ATOM      4  C   UNL     1     -19.107  -2.869  10.308  0.00  0.00    +0.000 A 
ATOM      5  C   UNL     1     -19.689  -4.080  10.687  0.00  0.00    +0.000 A 
ATOM      6  C   UNL     1     -19.648  -5.206   9.870  0.00  0.00    +0.000 A 
ATOM      7  C   UNL     1     -18.674  -5.110   8.882  0.00  0.00    +0.000 A 
ATOM      8  O   UNL     1     -18.596  -6.168   7.994  0.00  0.00    +0.000 OA
ATOM      9  C   UNL     1     -18.248  -3.862   8.438  0.00  0.00    +0.000 A 
BRANCH   3  10
ATOM     10  O   UNL     1     -19.257  -1.634   8.201  0.00  0.00    +0.000 OA
BRANCH  10  13
ATOM     11  C   UNL     1     -19.507   1.253   7.237  0.00  0.00    +0.000 C 
ATOM     12  O   UNL     1     -18.608   0.654   8.256  0.00  0.00    +0.000 OA
ATOM     13  C   UNL     1     -18.000  -0.696   7.880  0.00  0.00    +0.000 C 
ATOM     14  C   UNL     1     -18.232  -0.753   6.126  0.00  0.00    +0.000 C 
ATOM     15  O   UNL     1     -17.804   0.700   5.906  0.00  0.00    +0.000 OA
ATOM     16  C   UNL     1     -19.914  -0.487   5.832  0.00  0.00    +0.000 C 
ATOM     17  O   UNL     1     -20.234  -1.985   5.915  0.00  0.00    +0.000 OA
ATOM     18  C   UNL     1     -20.482  -0.188   7.422  0.00  0.00    +0.000 C 
ATOM     19  O   UNL     1     -21.695   0.526   6.853  0.00  0.00    +0.000 OA
BRANCH  11  21
ATOM     20  O   UNL     1     -20.272   2.693   8.286  0.00  0.00    +0.000 OA
ATOM     21  C   UNL     1     -20.392   2.036   8.446  0.00  0.00    +0.000 C 
ENDBRANCH  11  21
ENDBRANCH  10  13
ENDBRANCH   3  10
ENDBRANCH   1   6
BRANCH   2  22
ATOM     22  C   UNL     1     -23.026  -5.852   8.671  0.00  0.00    +0.000 A 
ATOM     23  C   UNL     1     -23.992  -6.806   8.395  0.00  0.00    +0.000 A 
ATOM     24  C   UNL     1     -25.326  -6.466   8.199  0.00  0.00    +0.000 A 
ATOM     25  O   UNL     1     -26.247  -7.372   7.665  0.00  0.00    +0.000 OA
ATOM     26  C   UNL     1     -25.633  -5.129   8.411  0.00  0.00    +0.000 A 
ATOM     27  C   UNL     1     -24.675  -4.137   8.393  0.00  0.00    +0.000 A 
ATOM     28  C   UNL     1     -23.396  -4.511   8.680  0.00  0.00    +0.000 A 
BRANCH  27  29
ATOM     29  O   UNL     1     -25.088  -2.851   8.075  0.00  0.00    +0.000 OA
BRANCH  29  30
ATOM     30  C   UNL     1     -26.425  -3.007   7.226  0.00  0.00    +0.000 C 
ATOM     31  O   UNL     1     -25.713  -2.652   5.903  0.00  0.00    +0.000 OA
ATOM     32  C   UNL     1     -27.208  -2.715   5.548  0.00  0.00    +0.000 C 
ATOM     33  C   UNL     1     -27.016  -1.108   4.945  0.00  0.00    +0.000 C 
ATOM     34  O   UNL     1     -28.453  -0.678   5.213  0.00  0.00    +0.000 OA
ATOM     35  C   UNL     1     -26.416  -0.353   6.391  0.00  0.00    +0.000 C 
ATOM     36  O   UNL     1     -24.987  -0.908   6.299  0.00  0.00    +0.000 OA
ATOM     37  C   UNL     1     -26.941  -1.384   7.680  0.00  0.00    +0.000 C 
ATOM     38  O   UNL     1     -28.377  -1.574   7.192  0.00  0.00    +0.000 OA
BRANCH  32  39
ATOM     39  C   UNL     1     -26.840  -3.347   4.040  0.00  0.00    +0.000 C 
ATOM     40  O   UNL     1     -27.459  -4.603   4.143  0.00  0.00    +0.000 OA
ENDBRANCH  32  39
ENDBRANCH  29  30
ENDBRANCH  27  29
ENDBRANCH   2  22
TORSDOF 8
ENDMDL
MODEL 4
REMARK VINA RESULT:      -7.9      2.587     10.637
REMARK  Name = 
REMARK  8 active torsions:
REMARK  status: ('A' for Active; 'I' for Inactive)
REMARK    1  A    between atoms: C_2  and  C_3
REMARK    2  A    between atoms: C_5  and  O_6
REMARK    3  A    between atoms: O_6  and  C_7
REMARK    4  A    between atoms: C_10  and  C_11
REMARK    5  A    between atoms: C_12  and  C_13
REMARK    6  A    between atoms: C_18  and  O_19
REMARK    7  A    between atoms: O_19  and  C_20
REMARK    8  A    between atoms: C_22  and  C_23
REMARK                            x       y       z     vdW  Elec       q    Type
REMARK                         _______ _______ _______ _____ _____    ______ ____
ROOT
ATOM      1  C   UNL     1     -25.064   7.903  -7.058  0.00  0.00    +0.000 C 
ATOM      2  C   UNL     1     -25.414   8.110  -8.295  0.00  0.00    +0.000 C 
ENDROOT
BRANCH   1   6
ATOM      3  C   UNL     1     -23.871   9.161  -3.388  0.00  0.00    +0.000 A 
ATOM      4  C   UNL     1     -23.072   9.592  -4.443  0.00  0.00    +0.000 A 
ATOM      5  C   UNL     1     -23.477   9.344  -5.755  0.00  0.00    +0.000 A 
ATOM      6  C   UNL     1     -24.774   8.945  -6.064  0.00  0.00    +0.000 A 
ATOM      7  C   UNL     1     -25.669   9.202  -5.031  0.00  0.00    +0.000 A 
ATOM      8  O   UNL     1     -26.974   8.794  -5.236  0.00  0.00    +0.000 OA
ATOM      9  C   UNL     1     -25.217   9.284  -3.718  0.00  0.00    +0.000 A 
BRANCH   3  10
ATOM     10  O   UNL     1     -23.401   8.271  -2.409  0.00  0.00    +0.000 OA
BRANCH  10  13
ATOM     11  C   UNL     1     -21.874   7.178  -0.002  0.00  0.00    +0.000 C 
ATOM     12  O   UNL     1     -21.508   8.244  -0.969  0.00  0.00    +0.000 OA
ATOM     13  C   UNL     1     -22.638   9.198  -1.350  0.00  0.00    +0.000 C 
ATOM     14  C   UNL     1     -23.823   8.933  -0.062  0.00  0.00    +0.000 C 
ATOM     15  O   UNL     1     -22.776   8.922   1.056  0.00  0.00    +0.000 OA
ATOM     16  C   UNL     1     -24.146   7.237  -0.015  0.00  0.00    +0.000 C 
ATOM     17  O   UNL     1     -25.290   7.358  -1.030  0.00  0.00    +0.000 OA
ATOM     18  C   UNL     1     -23.043   6.659  -1.195  0.00  0.00    +0.000 C 
ATOM     19  O   UNL     1     -23.106   5.276  -0.574  0.00  0.00    +0.000 OA
BRANCH  11  21
ATOM     20  O   UNL     1     -20.158   6.321  -0.289  0.00  0.00    +0.000 OA
ATOM     21  C   UNL     1     -20.708   6.147  -0.661  0.00  0.00    +0.000 C 
ENDBRANCH  11  21
ENDBRANCH  10  13
ENDBRANCH   3  10
ENDBRANCH   1   6
BRANCH   2  22
ATOM     22  C   UNL     1     -26.662   7.679  -8.911  0.00  0.00    +0.000 A 
ATOM     23  C   UNL     1     -26.758   6.648  -9.830  0.00  0.00    +0.000 A 
ATOM     24  C   UNL     1     -27.920   6.419 -10.559  0.00  0.00    +0.000 A 
ATOM     25  O   UNL     1     -27.941   5.563 -11.664  0.00  0.00    +0.000 OA
ATOM     26  C   UNL     1     -29.001   7.220 -10.216  0.00  0.00    +0.000 A 
ATOM     27  C   UNL     1     -28.853   8.413  -9.539  0.00  0.00    +0.000 A 
ATOM     28  C   UNL     1     -27.737   8.550  -8.769  0.00  0.00    +0.000 A 
BRANCH  27  29
ATOM     29  O   UNL     1     -29.841   9.372  -9.708  0.00  0.00    +0.000 OA
BRANCH  29  30
ATOM     30  C   UNL     1     -31.194   8.720  -9.182  0.00  0.00    +0.000 C 
ATOM     31  O   UNL     1     -31.903   8.916 -10.539  0.00  0.00    +0.000 OA
ATOM     32  C   UNL     1     -33.002   8.429  -9.581  0.00  0.00    +0.000 C 
ATOM     33  C   UNL     1     -33.868   9.853 -10.032  0.00  0.00    +0.000 C 
ATOM     34  O   UNL     1     -34.623   9.990  -8.715  0.00  0.00    +0.000 OA
ATOM     35  C   UNL     1     -32.678  11.039  -9.585  0.00  0.00    +0.000 C 
ATOM     36  O   UNL     1     -31.753  10.823 -10.792  0.00  0.00    +0.000 OA
ATOM     37  C   UNL     1     -31.670  10.240  -8.425  0.00  0.00    +0.000 C 
ATOM     38  O   UNL     1     -32.795   9.616  -7.600  0.00  0.00    +0.000 OA
BRANCH  32  39
ATOM     39  C   UNL     1     -33.728   7.569 -10.823  0.00  0.00    +0.000 C 
ATOM     40  O   UNL     1     -33.182   6.297 -10.592  0.00  0.00    +0.000 OA
ENDBRANCH  32  39
ENDBRANCH  29  30
ENDBRANCH  27  29
ENDBRANCH   2  22
TORSDOF 8
ENDMDL
MODEL 5
REMARK VINA RESULT:      -7.8      2.656     10.938
REMARK  Name = 
REMARK  8 active torsions:
REMARK  status: ('A' for Active; 'I' for Inactive)
REMARK    1  A    between atoms: C_2  and  C_3
REMARK    2  A    between atoms: C_5  and  O_6
REMARK    3  A    between atoms: O_6  and  C_7
REMARK    4  A    between atoms: C_10  and  C_11
REMARK    5  A    between atoms: C_12  and  C_13
REMARK    6  A    between atoms: C_18  and  O_19
REMARK    7  A    between atoms: O_19  and  C_20
REMARK    8  A    between atoms: C_22  and  C_23
REMARK                            x       y       z     vdW  Elec       q    Type
REMARK                         _______ _______ _______ _____ _____    ______ ____
ROOT
ATOM      1  C   UNL     1     -25.079   8.014  -6.980  0.00  0.00    +0.000 C 
ATOM      2  C   UNL     1     -25.251   8.172  -8.261  0.00  0.00    +0.000 C 
ENDROOT
BRANCH   1   6
ATOM      3  C   UNL     1     -23.899   9.328  -3.325  0.00  0.00    +0.000 A 
ATOM      4  C   UNL     1     -22.999   9.579  -4.356  0.00  0.00    +0.000 A 
ATOM      5  C   UNL     1     -23.372   9.306  -5.673  0.00  0.00    +0.000 A 
ATOM      6  C   UNL     1     -24.695   9.068  -6.032  0.00  0.00    +0.000 A 
ATOM      7  C   UNL     1     -25.594   9.509  -5.066  0.00  0.00    +0.000 A 
ATOM      8  O   UNL     1     -26.932   9.269  -5.320  0.00  0.00    +0.000 OA
ATOM      9  C   UNL     1     -25.197   9.611  -3.736  0.00  0.00    +0.000 A 
BRANCH   3  10
ATOM     10  O   UNL     1     -23.603   8.445  -2.274  0.00  0.00    +0.000 OA
BRANCH  10  13
ATOM     11  C   UNL     1     -21.981   7.322   0.057  0.00  0.00    +0.000 C 
ATOM     12  O   UNL     1     -21.703   8.471  -0.843  0.00  0.00    +0.000 OA
ATOM     13  C   UNL     1     -22.904   9.359  -1.161  0.00  0.00    +0.000 C 
ATOM     14  C   UNL     1     -24.056   8.927   0.111  0.00  0.00    +0.000 C 
ATOM     15  O   UNL     1     -23.004   8.925   1.224  0.00  0.00    +0.000 OA
ATOM     16  C   UNL     1     -24.252   7.212   0.053  0.00  0.00    +0.000 C 
ATOM     17  O   UNL     1     -25.409   7.310  -0.949  0.00  0.00    +0.000 OA
ATOM     18  C   UNL     1     -23.118   6.793  -1.163  0.00  0.00    +0.000 C 
ATOM     19  O   UNL     1     -23.072   5.373  -0.629  0.00  0.00    +0.000 OA
BRANCH  11  21
ATOM     20  O   UNL     1     -20.213   6.598  -0.273  0.00  0.00    +0.000 OA
ATOM     21  C   UNL     1     -20.747   6.425  -0.669  0.00  0.00    +0.000 C 
ENDBRANCH  11  21
ENDBRANCH  10  13
ENDBRANCH   3  10
ENDBRANCH   1   6
BRANCH   2  22
ATOM     22  C   UNL     1     -26.487   7.931  -8.991  0.00  0.00    +0.000 A 
ATOM     23  C   UNL     1     -26.743   6.785  -9.727  0.00  0.00    +0.000 A 
ATOM     24  C   UNL     1     -27.832   6.692 -10.587  0.00  0.00    +0.000 A 
ATOM     25  O   UNL     1     -27.948   5.658 -11.520  0.00  0.00    +0.000 OA
ATOM     26  C   UNL     1     -28.697   7.778 -10.566  0.00  0.00    +0.000 A 
ATOM     27  C   UNL     1     -28.322   9.014 -10.085  0.00  0.00    +0.000 A 
ATOM     28  C   UNL     1     -27.306   9.040  -9.176  0.00  0.00    +0.000 A 
BRANCH  27  29
ATOM     29  O   UNL     1     -28.997  10.124 -10.573  0.00  0.00    +0.000 OA
BRANCH  29  30
ATOM     30  C   UNL     1     -27.966  11.334 -10.523  0.00  0.00    +0.000 C 
ATOM     31  O   UNL     1     -28.532  11.859  -9.186  0.00  0.00    +0.000 OA
ATOM     32  C   UNL     1     -27.532  12.933  -9.644  0.00  0.00    +0.000 C 
ATOM     33  C   UNL     1     -28.843  14.049  -9.511  0.00  0.00    +0.000 C 
ATOM     34  O   UNL     1     -28.335  15.002 -10.586  0.00  0.00    +0.000 OA
ATOM     35  C   UNL     1     -29.962  13.272 -10.591  0.00  0.00    +0.000 C 
ATOM     36  O   UNL     1     -30.387  12.153  -9.629  0.00  0.00    +0.000 OA
ATOM     37  C   UNL     1     -28.976  12.282 -11.614  0.00  0.00    +0.000 C 
ATOM     38  O   UNL     1     -27.898  13.326 -11.900  0.00  0.00    +0.000 OA
BRANCH  32  39
ATOM     39  C   UNL     1     -27.093  13.227  -8.054  0.00  0.00    +0.000 C 
ATOM     40  O   UNL     1     -26.093  12.254  -7.893  0.00  0.00    +0.000 OA
ENDBRANCH  32  39
ENDBRANCH  29  30
ENDBRANCH  27  29
ENDBRANCH   2  22
TORSDOF 8
ENDMDL
MODEL 6
REMARK VINA RESULT:      -7.8      1.718      9.618
REMARK  Name = 
REMARK  8 active torsions:
REMARK  status: ('A' for Active; 'I' for Inactive)
REMARK    1  A    between atoms: C_2  and  C_3
REMARK    2  A    between atoms: C_5  and  O_6
REMARK    3  A    between atoms: O_6  and  C_7
REMARK    4  A    between atoms: C_10  and  C_11
REMARK    5  A    between atoms: C_12  and  C_13
REMARK    6  A    between atoms: C_18  and  O_19
REMARK    7  A    between atoms: O_19  and  C_20
REMARK    8  A    between atoms: C_22  and  C_23
REMARK                            x       y       z     vdW  Elec       q    Type
REMARK                         _______ _______ _______ _____ _____    ______ ____
ROOT
ATOM      1  C   UNL     1     -25.502   8.416  -5.456  0.00  0.00    +0.000 C 
ATOM      2  C   UNL     1     -25.034   8.488  -6.669  0.00  0.00    +0.000 C 
ENDROOT
BRANCH   1   6
ATOM      3  C   UNL     1     -24.383   8.340  -1.555  0.00  0.00    +0.000 A 
ATOM      4  C   UNL     1     -23.334   8.449  -2.463  0.00  0.00    +0.000 A 
ATOM      5  C   UNL     1     -23.616   8.636  -3.817  0.00  0.00    +0.000 A 
ATOM      6  C   UNL     1     -24.880   9.007  -4.263  0.00  0.00    +0.000 A 
ATOM      7  C   UNL     1     -25.670   9.533  -3.246  0.00  0.00    +0.000 A 
ATOM      8  O   UNL     1     -26.961   9.884  -3.592  0.00  0.00    +0.000 OA
ATOM      9  C   UNL     1     -25.430   9.181  -1.921  0.00  0.00    +0.000 A 
BRANCH   3  10
ATOM     10  O   UNL     1     -24.560   7.204  -0.750  0.00  0.00    +0.000 OA
BRANCH  10  13
ATOM     11  C   UNL     1     -25.583   4.343  -1.052  0.00  0.00    +0.000 C 
ATOM     12  O   UNL     1     -24.921   5.236  -2.037  0.00  0.00    +0.000 OA
ATOM     13  C   UNL     1     -23.744   6.047  -1.497  0.00  0.00    +0.000 C 
ATOM     14  C   UNL     1     -23.331   5.188  -0.006  0.00  0.00    +0.000 C 
ATOM     15  O   UNL     1     -23.461   3.797  -0.634  0.00  0.00    +0.000 OA
ATOM     16  C   UNL     1     -24.775   5.090   0.937  0.00  0.00    +0.000 C 
ATOM     17  O   UNL     1     -24.489   6.425   1.636  0.00  0.00    +0.000 OA
ATOM     18  C   UNL     1     -25.914   5.795  -0.134  0.00  0.00    +0.000 C 
ATOM     19  O   UNL     1     -27.041   5.101   0.610  0.00  0.00    +0.000 OA
BRANCH  11  21
ATOM     20  O   UNL     1     -27.003   3.981  -2.322  0.00  0.00    +0.000 OA
ATOM     21  C   UNL     1     -27.055   4.494  -1.869  0.00  0.00    +0.000 C 
ENDBRANCH  11  21
ENDBRANCH  10  13
ENDBRANCH   3  10
ENDBRANCH   1   6
BRANCH   2  22
ATOM     22  C   UNL     1     -25.710   9.092  -7.809  0.00  0.00    +0.000 A 
ATOM     23  C   UNL     1     -26.449  10.261  -7.743  0.00  0.00    +0.000 A 
ATOM     24  C   UNL     1     -27.259  10.680  -8.793  0.00  0.00    +0.000 A 
ATOM     25  O   UNL     1     -28.200  11.702  -8.637  0.00  0.00    +0.000 OA
ATOM     26  C   UNL     1     -27.182   9.906  -9.943  0.00  0.00    +0.000 A 
ATOM     27  C   UNL     1     -26.703   8.613  -9.935  0.00  0.00    +0.000 A 
ATOM     28  C   UNL     1     -25.842   8.282  -8.932  0.00  0.00    +0.000 A 
BRANCH  27  29
ATOM     29  O   UNL     1     -27.143   7.760 -10.937  0.00  0.00    +0.000 OA
BRANCH  29  30
ATOM     30  C   UNL     1     -28.730   7.870 -10.955  0.00  0.00    +0.000 C 
ATOM     31  O   UNL     1     -28.874   7.077  -9.638  0.00  0.00    +0.000 OA
ATOM     32  C   UNL     1     -30.310   7.254 -10.156  0.00  0.00    +0.000 C 
ATOM     33  C   UNL     1     -30.434   5.534 -10.061  0.00  0.00    +0.000 C 
ATOM     34  O   UNL     1     -31.455   5.397 -11.184  0.00  0.00    +0.000 OA
ATOM     35  C   UNL     1     -29.099   5.115 -11.092  0.00  0.00    +0.000 C 
ATOM     36  O   UNL     1     -27.989   5.419 -10.074  0.00  0.00    +0.000 OA
ATOM     37  C   UNL     1     -28.844   6.516 -12.078  0.00  0.00    +0.000 C 
ATOM     38  O   UNL     1     -30.311   6.769 -12.423  0.00  0.00    +0.000 OA
BRANCH  32  39
ATOM     39  C   UNL     1     -30.877   7.401  -8.585  0.00  0.00    +0.000 C 
ATOM     40  O   UNL     1     -31.624   8.584  -8.705  0.00  0.00    +0.000 OA
ENDBRANCH  32  39
ENDBRANCH  29  30
ENDBRANCH  27  29
ENDBRANCH   2  22
TORSDOF 8
ENDMDL
MODEL 7
REMARK VINA RESULT:      -7.8      2.207     10.140
REMARK  Name = 
REMARK  8 active torsions:
REMARK  status: ('A' for Active; 'I' for Inactive)
REMARK    1  A    between atoms: C_2  and  C_3
REMARK    2  A    between atoms: C_5  and  O_6
REMARK    3  A    between atoms: O_6  and  C_7
REMARK    4  A    between atoms: C_10  and  C_11
REMARK    5  A    between atoms: C_12  and  C_13
REMARK    6  A    between atoms: C_18  and  O_19
REMARK    7  A    between atoms: O_19  and  C_20
REMARK    8  A    between atoms: C_22  and  C_23
REMARK                            x       y       z     vdW  Elec       q    Type
REMARK                         _______ _______ _______ _____ _____    ______ ____
ROOT
ATOM      1  C   UNL     1     -25.523   7.995  -7.534  0.00  0.00    +0.000 C 
ATOM      2  C   UNL     1     -25.453   8.245  -8.809  0.00  0.00    +0.000 C 
ENDROOT
BRANCH   1   6
ATOM      3  C   UNL     1     -24.396   8.772  -3.712  0.00  0.00    +0.000 A 
ATOM      4  C   UNL     1     -23.424   9.031  -4.674  0.00  0.00    +0.000 A 
ATOM      5  C   UNL     1     -23.757   8.943  -6.026  0.00  0.00    +0.000 A 
ATOM      6  C   UNL     1     -25.078   8.893  -6.460  0.00  0.00    +0.000 A 
ATOM      7  C   UNL     1     -25.973   9.324  -5.486  0.00  0.00    +0.000 A 
ATOM      8  O   UNL     1     -27.314   9.263  -5.817  0.00  0.00    +0.000 OA
ATOM      9  C   UNL     1     -25.635   9.240  -4.139  0.00  0.00    +0.000 A 
BRANCH   3  10
ATOM     10  O   UNL     1     -24.249   7.755  -2.756  0.00  0.00    +0.000 OA
BRANCH  10  13
ATOM     11  C   UNL     1     -22.858   7.210  -0.093  0.00  0.00    +0.000 C 
ATOM     12  O   UNL     1     -23.322   8.487  -0.691  0.00  0.00    +0.000 OA
ATOM     13  C   UNL     1     -24.688   8.433  -1.373  0.00  0.00    +0.000 C 
ATOM     14  C   UNL     1     -25.394   6.950  -0.714  0.00  0.00    +0.000 C 
ATOM     15  O   UNL     1     -24.935   7.232   0.720  0.00  0.00    +0.000 OA
ATOM     16  C   UNL     1     -24.264   5.678  -1.012  0.00  0.00    +0.000 C 
ATOM     17  O   UNL     1     -24.883   5.356  -2.377  0.00  0.00    +0.000 OA
ATOM     18  C   UNL     1     -22.963   6.551  -1.710  0.00  0.00    +0.000 C 
ATOM     19  O   UNL     1     -22.012   5.425  -1.343  0.00  0.00    +0.000 OA
BRANCH  11  21
ATOM     20  O   UNL     1     -21.184   8.172   0.089  0.00  0.00    +0.000 OA
ATOM     21  C   UNL     1     -21.246   7.648  -0.350  0.00  0.00    +0.000 C 
ENDBRANCH  11  21
ENDBRANCH  10  13
ENDBRANCH   3  10
ENDBRANCH   1   6
BRANCH   2  22
ATOM     22  C   UNL     1     -26.581   8.318  -9.727  0.00  0.00    +0.000 A 
ATOM     23  C   UNL     1     -26.967   9.470 -10.393  0.00  0.00    +0.000 A 
ATOM     24  C   UNL     1     -28.174   9.554 -11.079  0.00  0.00    +0.000 A 
ATOM     25  O   UNL     1     -28.686  10.776 -11.523  0.00  0.00    +0.000 OA
ATOM     26  C   UNL     1     -28.902   8.373 -11.141  0.00  0.00    +0.000 A 
ATOM     27  C   UNL     1     -28.695   7.329 -10.264  0.00  0.00    +0.000 A 
ATOM     28  C   UNL     1     -27.463   7.243  -9.687  0.00  0.00    +0.000 A 
BRANCH  27  29
ATOM     29  O   UNL     1     -29.756   6.465 -10.035  0.00  0.00    +0.000 OA
BRANCH  29  30
ATOM     30  C   UNL     1     -31.042   7.155 -10.668  0.00  0.00    +0.000 C 
ATOM     31  O   UNL     1     -31.143   8.187  -9.525  0.00  0.00    +0.000 OA
ATOM     32  C   UNL     1     -32.418   8.390 -10.359  0.00  0.00    +0.000 C 
ATOM     33  C   UNL     1     -33.285   8.133  -8.887  0.00  0.00    +0.000 C 
ATOM     34  O   UNL     1     -34.531   7.559  -9.548  0.00  0.00    +0.000 OA
ATOM     35  C   UNL     1     -32.658   6.564  -8.481  0.00  0.00    +0.000 C 
ATOM     36  O   UNL     1     -31.290   7.047  -7.974  0.00  0.00    +0.000 OA
ATOM     37  C   UNL     1     -32.088   5.913  -9.982  0.00  0.00    +0.000 C 
ATOM     38  O   UNL     1     -33.302   6.298 -10.824  0.00  0.00    +0.000 OA
BRANCH  32  39
ATOM     39  C   UNL     1     -32.367  10.039 -10.065  0.00  0.00    +0.000 C 
ATOM     40  O   UNL     1     -32.047  10.507 -11.350  0.00  0.00    +0.000 OA
ENDBRANCH  32  39
ENDBRANCH  29  30
ENDBRANCH  27  29
ENDBRANCH   2  22
TORSDOF 8
ENDMDL
MODEL 8
REMARK VINA RESULT:      -7.7      2.094     10.415
REMARK  Name = 
REMARK  8 active torsions:
REMARK  status: ('A' for Active; 'I' for Inactive)
REMARK    1  A    between atoms: C_2  and  C_3
REMARK    2  A    between atoms: C_5  and  O_6
REMARK    3  A    between atoms: O_6  and  C_7
REMARK    4  A    between atoms: C_10  and  C_11
REMARK    5  A    between atoms: C_12  and  C_13
REMARK    6  A    between atoms: C_18  and  O_19
REMARK    7  A    between atoms: O_19  and  C_20
REMARK    8  A    between atoms: C_22  and  C_23
REMARK                            x       y       z     vdW  Elec       q    Type
REMARK                         _______ _______ _______ _____ _____    ______ ____
ROOT
ATOM      1  C   UNL     1     -25.454   7.761  -7.448  0.00  0.00    +0.000 C 
ATOM      2  C   UNL     1     -25.766   7.967  -8.695  0.00  0.00    +0.000 C 
ENDROOT
BRANCH   1   6
ATOM      3  C   UNL     1     -24.804   9.049  -3.654  0.00  0.00    +0.000 A 
ATOM      4  C   UNL     1     -23.740   9.244  -4.529  0.00  0.00    +0.000 A 
ATOM      5  C   UNL     1     -23.912   8.977  -5.888  0.00  0.00    +0.000 A 
ATOM      6  C   UNL     1     -25.172   8.803  -6.453  0.00  0.00    +0.000 A 
ATOM      7  C   UNL     1     -26.189   9.299  -5.643  0.00  0.00    +0.000 A 
ATOM      8  O   UNL     1     -27.480   9.125  -6.107  0.00  0.00    +0.000 OA
ATOM      9  C   UNL     1     -26.005   9.394  -4.268  0.00  0.00    +0.000 A 
BRANCH   3  10
ATOM     10  O   UNL     1     -24.727   8.163  -2.568  0.00  0.00    +0.000 OA
BRANCH  10  13
ATOM     11  C   UNL     1     -24.599   5.325  -1.448  0.00  0.00    +0.000 C 
ATOM     12  O   UNL     1     -24.444   5.817  -2.840  0.00  0.00    +0.000 OA
ATOM     13  C   UNL     1     -23.617   7.092  -2.997  0.00  0.00    +0.000 C 
ATOM     14  C   UNL     1     -22.743   7.180  -1.461  0.00  0.00    +0.000 C 
ATOM     15  O   UNL     1     -22.397   5.688  -1.439  0.00  0.00    +0.000 OA
ATOM     16  C   UNL     1     -23.924   7.104  -0.203  0.00  0.00    +0.000 C 
ATOM     17  O   UNL     1     -24.098   8.628  -0.182  0.00  0.00    +0.000 OA
ATOM     18  C   UNL     1     -25.358   6.865  -1.113  0.00  0.00    +0.000 C 
ATOM     19  O   UNL     1     -26.041   6.293   0.116  0.00  0.00    +0.000 OA
BRANCH  11  21
ATOM     20  O   UNL     1     -25.897   4.087  -2.182  0.00  0.00    +0.000 OA
ATOM     21  C   UNL     1     -26.096   4.642  -1.830  0.00  0.00    +0.000 C 
ENDBRANCH  11  21
ENDBRANCH  10  13
ENDBRANCH   3  10
ENDBRANCH   1   6
BRANCH   2  22
ATOM     22  C   UNL     1     -27.004   7.558  -9.344  0.00  0.00    +0.000 A 
ATOM     23  C   UNL     1     -27.122   6.443 -10.157  0.00  0.00    +0.000 A 
ATOM     24  C   UNL     1     -28.254   6.215 -10.932  0.00  0.00    +0.000 A 
ATOM     25  O   UNL     1     -28.274   5.249 -11.943  0.00  0.00    +0.000 OA
ATOM     26  C   UNL     1     -29.291   7.118 -10.744  0.00  0.00    +0.000 A 
ATOM     27  C   UNL     1     -29.096   8.364 -10.185  0.00  0.00    +0.000 A 
ATOM     28  C   UNL     1     -28.019   8.508  -9.362  0.00  0.00    +0.000 A 
BRANCH  27  29
ATOM     29  O   UNL     1     -30.000   9.363 -10.515  0.00  0.00    +0.000 OA
BRANCH  29  30
ATOM     30  C   UNL     1     -31.383   8.959  -9.839  0.00  0.00    +0.000 C 
ATOM     31  O   UNL     1     -32.145   9.035 -11.179  0.00  0.00    +0.000 OA
ATOM     32  C   UNL     1     -33.233   8.825 -10.113  0.00  0.00    +0.000 C 
ATOM     33  C   UNL     1     -33.963  10.260 -10.739  0.00  0.00    +0.000 C 
ATOM     34  O   UNL     1     -34.619  10.676  -9.429  0.00  0.00    +0.000 OA
ATOM     35  C   UNL     1     -32.626  11.351 -10.528  0.00  0.00    +0.000 C 
ATOM     36  O   UNL     1     -31.803  10.854 -11.727  0.00  0.00    +0.000 OA
ATOM     37  C   UNL     1     -31.645  10.618  -9.304  0.00  0.00    +0.000 C 
ATOM     38  O   UNL     1     -32.780  10.258  -8.347  0.00  0.00    +0.000 OA
BRANCH  32  39
ATOM     39  C   UNL     1     -34.119   7.884 -11.179  0.00  0.00    +0.000 C 
ATOM     40  O   UNL     1     -33.936   6.619 -10.599  0.00  0.00    +0.000 OA
ENDBRANCH  32  39
ENDBRANCH  29  30
ENDBRANCH  27  29
ENDBRANCH   2  22
TORSDOF 8
ENDMDL
MODEL 9
REMARK VINA RESULT:      -7.7     13.377     18.608
REMARK  Name = 
REMARK  8 active torsions:
REMARK  status: ('A' for Active; 'I' for Inactive)
REMARK    1  A    between atoms: C_2  and  C_3
REMARK    2  A    between atoms: C_5  and  O_6
REMARK    3  A    between atoms: O_6  and  C_7
REMARK    4  A    between atoms: C_10  and  C_11
REMARK    5  A    between atoms: C_12  and  C_13
REMARK    6  A    between atoms: C_18  and  O_19
REMARK    7  A    between atoms: O_19  and  C_20
REMARK    8  A    between atoms: C_22  and  C_23
REMARK                            x       y       z     vdW  Elec       q    Type
REMARK                         _______ _______ _______ _____ _____    ______ ____
ROOT
ATOM      1  C   UNL     1     -36.426  -6.855  -7.371  0.00  0.00    +0.000 C 
ATOM      2  C   UNL     1     -35.723  -7.359  -8.345  0.00  0.00    +0.000 C 
ENDROOT
BRANCH   1   6
ATOM      3  C   UNL     1     -34.211  -4.954  -4.550  0.00  0.00    +0.000 A 
ATOM      4  C   UNL     1     -34.101  -4.428  -5.833  0.00  0.00    +0.000 A 
ATOM      5  C   UNL     1     -34.933  -4.909  -6.845  0.00  0.00    +0.000 A 
ATOM      6  C   UNL     1     -36.059  -5.678  -6.571  0.00  0.00    +0.000 A 
ATOM      7  C   UNL     1     -36.462  -5.576  -5.244  0.00  0.00    +0.000 A 
ATOM      8  O   UNL     1     -37.548  -6.347  -4.873  0.00  0.00    +0.000 OA
ATOM      9  C   UNL     1     -35.540  -5.241  -4.257  0.00  0.00    +0.000 A 
BRANCH   3  10
ATOM     10  O   UNL     1     -33.132  -5.578  -3.902  0.00  0.00    +0.000 OA
BRANCH  10  13
ATOM     11  C   UNL     1     -30.320  -5.580  -2.714  0.00  0.00    +0.000 C 
ATOM     12  O   UNL     1     -31.146  -4.457  -3.226  0.00  0.00    +0.000 OA
ATOM     13  C   UNL     1     -32.622  -4.499  -2.835  0.00  0.00    +0.000 C 
ATOM     14  C   UNL     1     -32.634  -5.636  -1.479  0.00  0.00    +0.000 C 
ATOM     15  O   UNL     1     -31.380  -5.047  -0.825  0.00  0.00    +0.000 OA
ATOM     16  C   UNL     1     -31.878  -7.087  -2.031  0.00  0.00    +0.000 C 
ATOM     17  O   UNL     1     -33.208  -7.673  -2.521  0.00  0.00    +0.000 OA
ATOM     18  C   UNL     1     -31.396  -6.627  -3.611  0.00  0.00    +0.000 C 
ATOM     19  O   UNL     1     -30.359  -7.735  -3.617  0.00  0.00    +0.000 OA
BRANCH  11  21
ATOM     20  O   UNL     1     -28.932  -4.895  -3.882  0.00  0.00    +0.000 OA
ATOM     21  C   UNL     1     -29.287  -5.459  -4.047  0.00  0.00    +0.000 C 
ENDBRANCH  11  21
ENDBRANCH  10  13
ENDBRANCH   3  10
ENDBRANCH   1   6
BRANCH   2  22
ATOM     22  C   UNL     1     -36.157  -7.492  -9.729  0.00  0.00    +0.000 A 
ATOM     23  C   UNL     1     -35.469  -8.213 -10.692  0.00  0.00    +0.000 A 
ATOM     24  C   UNL     1     -35.791  -8.129 -12.042  0.00  0.00    +0.000 A 
ATOM     25  O   UNL     1     -34.948  -8.637 -13.034  0.00  0.00    +0.000 OA
ATOM     26  C   UNL     1     -36.914  -7.367 -12.336  0.00  0.00    +0.000 A 
ATOM     27  C   UNL     1     -37.421  -6.429 -11.462  0.00  0.00    +0.000 A 
ATOM     28  C   UNL     1     -37.149  -6.608 -10.139  0.00  0.00    +0.000 A 
BRANCH  27  29
ATOM     29  O   UNL     1     -38.153  -5.380 -12.002  0.00  0.00    +0.000 OA
BRANCH  29  30
ATOM     30  C   UNL     1     -38.578  -4.455 -10.780  0.00  0.00    +0.000 C 
ATOM     31  O   UNL     1     -40.081  -4.735 -10.995  0.00  0.00    +0.000 OA
ATOM     32  C   UNL     1     -40.030  -3.639  -9.917  0.00  0.00    +0.000 C 
ATOM     33  C   UNL     1     -41.053  -2.721 -10.964  0.00  0.00    +0.000 C 
ATOM     34  O   UNL     1     -40.559  -1.358 -10.495  0.00  0.00    +0.000 OA
ATOM     35  C   UNL     1     -40.042  -2.709 -12.378  0.00  0.00    +0.000 C 
ATOM     36  O   UNL     1     -40.336  -4.152 -12.817  0.00  0.00    +0.000 OA
ATOM     37  C   UNL     1     -38.444  -3.011 -11.783  0.00  0.00    +0.000 C 
ATOM     38  O   UNL     1     -38.498  -2.040 -10.605  0.00  0.00    +0.000 OA
BRANCH  32  39
ATOM     39  C   UNL     1     -41.368  -4.301  -9.156  0.00  0.00    +0.000 C 
ATOM     40  O   UNL     1     -40.836  -5.539  -8.761  0.00  0.00    +0.000 OA
ENDBRANCH  32  39
ENDBRANCH  29  30
ENDBRANCH  27  29
ENDBRANCH   2  22
TORSDOF 8
ENDMDL
MODEL 10
REMARK VINA RESULT:      -7.6     15.662     20.155
REMARK  Name = 
REMARK  8 active torsions:
REMARK  status: ('A' for Active; 'I' for Inactive)
REMARK    1  A    between atoms: C_2  and  C_3
REMARK    2  A    between atoms: C_5  and  O_6
REMARK    3  A    between atoms: O_6  and  C_7
REMARK    4  A    between atoms: C_10  and  C_11
REMARK    5  A    between atoms: C_12  and  C_13
REMARK    6  A    between atoms: C_18  and  O_19
REMARK    7  A    between atoms: O_19  and  C_20
REMARK    8  A    between atoms: C_22  and  C_23
REMARK                            x       y       z     vdW  Elec       q    Type
REMARK                         _______ _______ _______ _____ _____    ______ ____
ROOT
ATOM      1  C   UNL     1     -36.354  -8.932  -7.798  0.00  0.00    +0.000 C 
ATOM      2  C   UNL     1     -35.460  -8.554  -8.666  0.00  0.00    +0.000 C 
ENDROOT
BRANCH   1   6
ATOM      3  C   UNL     1     -35.061  -6.872  -4.547  0.00  0.00    +0.000 A 
ATOM      4  C   UNL     1     -36.159  -6.314  -5.197  0.00  0.00    +0.000 A 
ATOM      5  C   UNL     1     -36.775  -7.019  -6.231  0.00  0.00    +0.000 A 
ATOM      6  C   UNL     1     -36.530  -8.370  -6.452  0.00  0.00    +0.000 A 
ATOM      7  C   UNL     1     -35.954  -8.993  -5.349  0.00  0.00    +0.000 A 
ATOM      8  O   UNL     1     -35.633 -10.329  -5.498  0.00  0.00    +0.000 OA
ATOM      9  C   UNL     1     -35.217  -8.250  -4.432  0.00  0.00    +0.000 A 
BRANCH   3  10
ATOM     10  O   UNL     1     -33.809  -6.238  -4.515  0.00  0.00    +0.000 OA
BRANCH  10  13
ATOM     11  C   UNL     1     -32.020  -3.783  -4.202  0.00  0.00    +0.000 C 
ATOM     12  O   UNL     1     -33.479  -3.943  -3.980  0.00  0.00    +0.000 OA
ATOM     13  C   UNL     1     -33.897  -5.231  -3.273  0.00  0.00    +0.000 C 
ATOM     14  C   UNL     1     -32.382  -5.785  -2.544  0.00  0.00    +0.000 C 
ATOM     15  O   UNL     1     -31.974  -4.392  -2.056  0.00  0.00    +0.000 OA
ATOM     16  C   UNL     1     -31.215  -5.874  -3.814  0.00  0.00    +0.000 C 
ATOM     17  O   UNL     1     -31.579  -7.327  -4.139  0.00  0.00    +0.000 OA
ATOM     18  C   UNL     1     -32.119  -5.259  -5.135  0.00  0.00    +0.000 C 
ATOM     19  O   UNL     1     -30.829  -4.921  -5.860  0.00  0.00    +0.000 OA
BRANCH  11  21
ATOM     20  O   UNL     1     -32.656  -2.331  -5.318  0.00  0.00    +0.000 OA
ATOM     21  C   UNL     1     -32.308  -2.858  -5.587  0.00  0.00    +0.000 C 
ENDBRANCH  11  21
ENDBRANCH  10  13
ENDBRANCH   3  10
ENDBRANCH   1   6
BRANCH   2  22
ATOM     22  C   UNL     1     -35.733  -8.006  -9.987  0.00  0.00    +0.000 A 
ATOM     23  C   UNL     1     -36.723  -7.073 -10.251  0.00  0.00    +0.000 A 
ATOM     24  C   UNL     1     -37.098  -6.747 -11.550  0.00  0.00    +0.000 A 
ATOM     25  O   UNL     1     -38.259  -6.017 -11.821  0.00  0.00    +0.000 OA
ATOM     26  C   UNL     1     -36.336  -7.334 -12.551  0.00  0.00    +0.000 A 
ATOM     27  C   UNL     1     -35.568  -8.459 -12.333  0.00  0.00    +0.000 A 
ATOM     28  C   UNL     1     -35.153  -8.683 -11.054  0.00  0.00    +0.000 A 
BRANCH  27  29
ATOM     29  O   UNL     1     -35.294  -9.269 -13.426  0.00  0.00    +0.000 OA
BRANCH  29  30
ATOM     30  C   UNL     1     -36.689  -9.559 -14.131  0.00  0.00    +0.000 C 
ATOM     31  O   UNL     1     -36.989 -10.761 -13.211  0.00  0.00    +0.000 OA
ATOM     32  C   UNL     1     -38.102 -10.783 -14.271  0.00  0.00    +0.000 C 
ATOM     33  C   UNL     1     -37.606 -12.405 -14.595  0.00  0.00    +0.000 C 
ATOM     34  O   UNL     1     -38.031 -12.401 -16.058  0.00  0.00    +0.000 OA
ATOM     35  C   UNL     1     -35.938 -12.101 -14.977  0.00  0.00    +0.000 C 
ATOM     36  O   UNL     1     -35.461 -11.896 -13.531  0.00  0.00    +0.000 OA
ATOM     37  C   UNL     1     -35.886 -10.432 -15.436  0.00  0.00    +0.000 C 
ATOM     38  O   UNL     1     -37.115 -10.450 -16.343  0.00  0.00    +0.000 OA
BRANCH  32  39
ATOM     39  C   UNL     1     -39.203 -11.325 -13.130  0.00  0.00    +0.000 C 
ATOM     40  O   UNL     1     -40.348 -10.627 -13.543  0.00  0.00    +0.000 OA
ENDBRANCH  32  39
ENDBRANCH  29  30
ENDBRANCH  27  29
ENDBRANCH   2  22
TORSDOF 8
ENDMDL
