MODEL 1
REMARK VINA RESULT:      -6.7      0.000      0.000
REMARK  Name = 
REMARK  4 active torsions:
REMARK  status: ('A' for Active; 'I' for Inactive)
REMARK    1  A    between atoms: O_2  and  C_3
REMARK    2  A    between atoms: C_8  and  C_9
REMARK    3  A    between atoms: C_17  and  O_18
REMARK    4  A    between atoms: C_20  and  O_21
REMARK                            x       y       z     vdW  Elec       q    Type
REMARK                         _______ _______ _______ _____ _____    ______ ____
ROOT
ATOM      1  C   UNL     1     -33.633  -2.920  -5.242  0.00  0.00    +0.000 C 
ATOM      2  C   UNL     1     -34.466  -3.273  -6.213  0.00  0.00    +0.000 C 
ATOM      3  C   UNL     1     -34.210  -4.545  -6.897  0.00  0.00    +0.000 C 
ATOM      4  O   UNL     1     -33.172  -5.192  -6.602  0.00  0.00    +0.000 OA
ATOM      5  O   UNL     1     -35.301  -5.123  -7.550  0.00  0.00    +0.000 OA
ATOM      6  C   UNL     1     -36.636  -4.828  -7.219  0.00  0.00    +0.000 C 
ATOM      7  C   UNL     1     -36.850  -3.376  -6.953  0.00  0.00    +0.000 A 
ATOM      8  C   UNL     1     -38.134  -3.037  -6.541  0.00  0.00    +0.000 A 
ATOM      9  C   UNL     1     -38.300  -1.794  -5.944  0.00  0.00    +0.000 A 
ATOM     10  C   UNL     1     -37.256  -0.879  -5.959  0.00  0.00    +0.000 A 
ATOM     11  C   UNL     1     -35.974  -1.413  -5.884  0.00  0.00    +0.000 A 
ATOM     12  C   UNL     1     -35.774  -2.679  -6.416  0.00  0.00    +0.000 A 
ENDROOT
BRANCH   1  18
ATOM     13  C   UNL     1     -31.450  -3.901  -4.522  0.00  0.00    +0.000 A 
ATOM     14  C   UNL     1     -30.754  -4.704  -3.626  0.00  0.00    +0.000 A 
ATOM     15  C   UNL     1     -31.441  -5.657  -2.890  0.00  0.00    +0.000 A 
ATOM     16  C   UNL     1     -32.780  -5.437  -2.666  0.00  0.00    +0.000 A 
ATOM     17  C   UNL     1     -33.426  -4.475  -3.394  0.00  0.00    +0.000 A 
ATOM     18  C   UNL     1     -32.823  -3.898  -4.504  0.00  0.00    +0.000 A 
ATOM     19  O   UNL     1     -33.289  -6.453  -1.878  0.00  0.00    +0.000 OA
ATOM     20  C   UNL     1     -32.288  -7.465  -1.799  0.00  0.00    +0.000 C 
ATOM     21  O   UNL     1     -31.106  -6.880  -2.327  0.00  0.00    +0.000 OA
BRANCH  13  23
ATOM     22  C   UNL     1     -29.822  -3.975  -6.370  0.00  0.00    +0.000 C 
ATOM     23  O   UNL     1     -30.826  -3.316  -5.613  0.00  0.00    +0.000 OA
ENDBRANCH  13  23
ENDBRANCH   1  18
BRANCH   9  24
ATOM     24  O   UNL     1     -39.550  -1.296  -5.595  0.00  0.00    +0.000 OA
ATOM     25  C   UNL     1     -40.035  -1.491  -4.293  0.00  0.00    +0.000 C 
ENDBRANCH   9  24
BRANCH  10  26
ATOM     26  O   UNL     1     -37.483   0.499  -5.952  0.00  0.00    +0.000 OA
ATOM     27  C   UNL     1     -37.499   1.149  -7.221  0.00  0.00    +0.000 C 
ENDBRANCH  10  26
TORSDOF 4
ENDMDL
MODEL 2
REMARK VINA RESULT:      -6.6      2.424      4.687
REMARK  Name = 
REMARK  4 active torsions:
REMARK  status: ('A' for Active; 'I' for Inactive)
REMARK    1  A    between atoms: O_2  and  C_3
REMARK    2  A    between atoms: C_8  and  C_9
REMARK    3  A    between atoms: C_17  and  O_18
REMARK    4  A    between atoms: C_20  and  O_21
REMARK                            x       y       z     vdW  Elec       q    Type
REMARK                         _______ _______ _______ _____ _____    ______ ____
ROOT
ATOM      1  C   UNL     1     -33.477  -6.072  -4.872  0.00  0.00    +0.000 C 
ATOM      2  C   UNL     1     -34.463  -5.185  -4.856  0.00  0.00    +0.000 C 
ATOM      3  C   UNL     1     -34.260  -3.959  -4.077  0.00  0.00    +0.000 C 
ATOM      4  O   UNL     1     -33.212  -3.846  -3.391  0.00  0.00    +0.000 OA
ATOM      5  O   UNL     1     -35.052  -2.865  -4.434  0.00  0.00    +0.000 OA
ATOM      6  C   UNL     1     -35.647  -2.730  -5.701  0.00  0.00    +0.000 C 
ATOM      7  C   UNL     1     -36.211  -4.015  -6.206  0.00  0.00    +0.000 A 
ATOM      8  C   UNL     1     -36.738  -3.962  -7.491  0.00  0.00    +0.000 A 
ATOM      9  C   UNL     1     -36.945  -5.170  -8.143  0.00  0.00    +0.000 A 
ATOM     10  C   UNL     1     -36.811  -6.361  -7.442  0.00  0.00    +0.000 A 
ATOM     11  C   UNL     1     -35.844  -6.377  -6.442  0.00  0.00    +0.000 A 
ATOM     12  C   UNL     1     -35.563  -5.177  -5.803  0.00  0.00    +0.000 A 
ENDROOT
BRANCH   1  18
ATOM     13  C   UNL     1     -31.311  -6.334  -3.652  0.00  0.00    +0.000 A 
ATOM     14  C   UNL     1     -29.943  -6.091  -3.608  0.00  0.00    +0.000 A 
ATOM     15  C   UNL     1     -29.412  -5.053  -4.359  0.00  0.00    +0.000 A 
ATOM     16  C   UNL     1     -30.110  -4.661  -5.477  0.00  0.00    +0.000 A 
ATOM     17  C   UNL     1     -31.398  -5.092  -5.642  0.00  0.00    +0.000 A 
ATOM     18  C   UNL     1     -32.081  -5.706  -4.600  0.00  0.00    +0.000 A 
ATOM     19  O   UNL     1     -29.412  -3.659  -6.128  0.00  0.00    +0.000 OA
ATOM     20  C   UNL     1     -28.359  -3.249  -5.260  0.00  0.00    +0.000 C 
ATOM     21  O   UNL     1     -28.306  -4.225  -4.230  0.00  0.00    +0.000 OA
BRANCH  13  23
ATOM     22  C   UNL     1     -32.306  -6.308  -1.398  0.00  0.00    +0.000 C 
ATOM     23  O   UNL     1     -31.972  -6.966  -2.611  0.00  0.00    +0.000 OA
ENDBRANCH  13  23
ENDBRANCH   1  18
BRANCH   9  24
ATOM     24  O   UNL     1     -37.572  -5.252  -9.381  0.00  0.00    +0.000 OA
ATOM     25  C   UNL     1     -38.449  -4.232  -9.782  0.00  0.00    +0.000 C 
ENDBRANCH   9  24
BRANCH  10  26
ATOM     26  O   UNL     1     -37.536  -7.504  -7.784  0.00  0.00    +0.000 OA
ATOM     27  C   UNL     1     -36.796  -8.583  -8.350  0.00  0.00    +0.000 C 
ENDBRANCH  10  26
TORSDOF 4
ENDMDL
MODEL 3
REMARK VINA RESULT:      -6.2     12.696     15.962
REMARK  Name = 
REMARK  4 active torsions:
REMARK  status: ('A' for Active; 'I' for Inactive)
REMARK    1  A    between atoms: O_2  and  C_3
REMARK    2  A    between atoms: C_8  and  C_9
REMARK    3  A    between atoms: C_17  and  O_18
REMARK    4  A    between atoms: C_20  and  O_21
REMARK                            x       y       z     vdW  Elec       q    Type
REMARK                         _______ _______ _______ _____ _____    ______ ____
ROOT
ATOM      1  C   UNL     1     -29.045   8.368  -9.833  0.00  0.00    +0.000 C 
ATOM      2  C   UNL     1     -28.512   9.322 -10.586  0.00  0.00    +0.000 C 
ATOM      3  C   UNL     1     -28.947   9.404 -11.985  0.00  0.00    +0.000 C 
ATOM      4  O   UNL     1     -29.725   8.520 -12.428  0.00  0.00    +0.000 OA
ATOM      5  O   UNL     1     -28.767  10.638 -12.614  0.00  0.00    +0.000 OA
ATOM      6  C   UNL     1     -28.645  11.848 -11.907  0.00  0.00    +0.000 C 
ATOM      7  C   UNL     1     -27.793  11.713 -10.689  0.00  0.00    +0.000 A 
ATOM      8  C   UNL     1     -27.703  12.857  -9.905  0.00  0.00    +0.000 A 
ATOM      9  C   UNL     1     -27.237  12.700  -8.606  0.00  0.00    +0.000 A 
ATOM     10  C   UNL     1     -26.705  11.481  -8.210  0.00  0.00    +0.000 A 
ATOM     11  C   UNL     1     -27.275  10.350  -8.782  0.00  0.00    +0.000 A 
ATOM     12  C   UNL     1     -27.807  10.474 -10.058  0.00  0.00    +0.000 A 
ENDROOT
BRANCH   1  18
ATOM     13  C   UNL     1     -30.490   6.410 -10.398  0.00  0.00    +0.000 A 
ATOM     14  C   UNL     1     -31.766   5.860 -10.456  0.00  0.00    +0.000 A 
ATOM     15  C   UNL     1     -32.869   6.701 -10.488  0.00  0.00    +0.000 A 
ATOM     16  C   UNL     1     -32.721   7.956  -9.944  0.00  0.00    +0.000 A 
ATOM     17  C   UNL     1     -31.463   8.416  -9.666  0.00  0.00    +0.000 A 
ATOM     18  C   UNL     1     -30.341   7.750 -10.142  0.00  0.00    +0.000 A 
ATOM     19  O   UNL     1     -33.925   8.633 -10.013  0.00  0.00    +0.000 OA
ATOM     20  C   UNL     1     -34.793   7.861 -10.839  0.00  0.00    +0.000 C 
ATOM     21  O   UNL     1     -34.152   6.605 -11.007  0.00  0.00    +0.000 OA
BRANCH  13  23
ATOM     22  C   UNL     1     -29.143   4.353 -10.560  0.00  0.00    +0.000 C 
ATOM     23  O   UNL     1     -29.379   5.721 -10.859  0.00  0.00    +0.000 OA
ENDBRANCH  13  23
ENDBRANCH   1  18
BRANCH   9  24
ATOM     24  O   UNL     1     -26.994  13.781  -7.766  0.00  0.00    +0.000 OA
ATOM     25  C   UNL     1     -26.328  14.911  -8.266  0.00  0.00    +0.000 C 
ENDBRANCH   9  24
BRANCH  10  26
ATOM     26  O   UNL     1     -25.721  11.393  -7.223  0.00  0.00    +0.000 OA
ATOM     27  C   UNL     1     -25.524  10.109  -6.632  0.00  0.00    +0.000 C 
ENDBRANCH  10  26
TORSDOF 4
ENDMDL
MODEL 4
REMARK VINA RESULT:      -6.1     12.920     15.766
REMARK  Name = 
REMARK  4 active torsions:
REMARK  status: ('A' for Active; 'I' for Inactive)
REMARK    1  A    between atoms: O_2  and  C_3
REMARK    2  A    between atoms: C_8  and  C_9
REMARK    3  A    between atoms: C_17  and  O_18
REMARK    4  A    between atoms: C_20  and  O_21
REMARK                            x       y       z     vdW  Elec       q    Type
REMARK                         _______ _______ _______ _____ _____    ______ ____
ROOT
ATOM      1  C   UNL     1     -26.414   8.956  -8.348  0.00  0.00    +0.000 C 
ATOM      2  C   UNL     1     -26.910   9.062  -7.122  0.00  0.00    +0.000 C 
ATOM      3  C   UNL     1     -28.358   8.898  -6.959  0.00  0.00    +0.000 C 
ATOM      4  O   UNL     1     -29.070   8.760  -7.988  0.00  0.00    +0.000 OA
ATOM      5  O   UNL     1     -28.798   8.541  -5.683  0.00  0.00    +0.000 OA
ATOM      6  C   UNL     1     -27.970   7.914  -4.734  0.00  0.00    +0.000 C 
ATOM      7  C   UNL     1     -26.594   8.490  -4.710  0.00  0.00    +0.000 A 
ATOM      8  C   UNL     1     -25.706   7.855  -3.850  0.00  0.00    +0.000 A 
ATOM      9  C   UNL     1     -24.352   8.101  -4.041  0.00  0.00    +0.000 A 
ATOM     10  C   UNL     1     -23.952   9.093  -4.925  0.00  0.00    +0.000 A 
ATOM     11  C   UNL     1     -24.758   9.278  -6.042  0.00  0.00    +0.000 A 
ATOM     12  C   UNL     1     -26.110   8.989  -5.914  0.00  0.00    +0.000 A 
ENDROOT
BRANCH   1  18
ATOM     13  C   UNL     1     -27.503   8.810 -10.593  0.00  0.00    +0.000 A 
ATOM     14  C   UNL     1     -27.940   8.012 -11.644  0.00  0.00    +0.000 A 
ATOM     15  C   UNL     1     -28.188   6.666 -11.420  0.00  0.00    +0.000 A 
ATOM     16  C   UNL     1     -27.519   6.066 -10.378  0.00  0.00    +0.000 A 
ATOM     17  C   UNL     1     -26.884   6.852  -9.456  0.00  0.00    +0.000 A 
ATOM     18  C   UNL     1     -27.104   8.223  -9.418  0.00  0.00    +0.000 A 
ATOM     19  O   UNL     1     -27.845   4.722 -10.335  0.00  0.00    +0.000 OA
ATOM     20  C   UNL     1     -28.932   4.524 -11.235  0.00  0.00    +0.000 C 
ATOM     21  O   UNL     1     -29.031   5.723 -11.990  0.00  0.00    +0.000 OA
BRANCH  13  23
ATOM     22  C   UNL     1     -28.313  10.875 -11.666  0.00  0.00    +0.000 C 
ATOM     23  O   UNL     1     -27.713  10.179 -10.583  0.00  0.00    +0.000 OA
ENDBRANCH  13  23
ENDBRANCH   1  18
BRANCH   9  24
ATOM     24  O   UNL     1     -23.378   7.617  -3.175  0.00  0.00    +0.000 OA
ATOM     25  C   UNL     1     -23.723   6.660  -2.208  0.00  0.00    +0.000 C 
ENDBRANCH   9  24
BRANCH  10  26
ATOM     26  O   UNL     1     -22.759   9.798  -4.751  0.00  0.00    +0.000 OA
ATOM     27  C   UNL     1     -22.840  11.016  -4.013  0.00  0.00    +0.000 C 
ENDBRANCH  10  26
TORSDOF 4
ENDMDL
MODEL 5
REMARK VINA RESULT:      -6.0     18.331     20.758
REMARK  Name = 
REMARK  4 active torsions:
REMARK  status: ('A' for Active; 'I' for Inactive)
REMARK    1  A    between atoms: O_2  and  C_3
REMARK    2  A    between atoms: C_8  and  C_9
REMARK    3  A    between atoms: C_17  and  O_18
REMARK    4  A    between atoms: C_20  and  O_21
REMARK                            x       y       z     vdW  Elec       q    Type
REMARK                         _______ _______ _______ _____ _____    ______ ____
ROOT
ATOM      1  C   UNL     1     -17.929  -8.534   5.459  0.00  0.00    +0.000 C 
ATOM      2  C   UNL     1     -19.236  -8.443   5.665  0.00  0.00    +0.000 C 
ATOM      3  C   UNL     1     -20.123  -8.714   4.528  0.00  0.00    +0.000 C 
ATOM      4  O   UNL     1     -19.610  -8.925   3.399  0.00  0.00    +0.000 OA
ATOM      5  O   UNL     1     -21.434  -9.079   4.843  0.00  0.00    +0.000 OA
ATOM      6  C   UNL     1     -21.800  -9.623   6.087  0.00  0.00    +0.000 C 
ATOM      7  C   UNL     1     -21.120  -8.944   7.228  0.00  0.00    +0.000 A 
ATOM      8  C   UNL     1     -21.380  -9.493   8.478  0.00  0.00    +0.000 A 
ATOM      9  C   UNL     1     -20.521  -9.149   9.513  0.00  0.00    +0.000 A 
ATOM     10  C   UNL     1     -19.581  -8.145   9.321  0.00  0.00    +0.000 A 
ATOM     11  C   UNL     1     -19.048  -8.043   8.041  0.00  0.00    +0.000 A 
ATOM     12  C   UNL     1     -19.852  -8.433   6.978  0.00  0.00    +0.000 A 
ENDROOT
BRANCH   1  18
ATOM     13  C   UNL     1     -16.558  -8.808   3.387  0.00  0.00    +0.000 A 
ATOM     14  C   UNL     1     -15.869  -9.659   2.530  0.00  0.00    +0.000 A 
ATOM     15  C   UNL     1     -16.173 -11.012   2.526  0.00  0.00    +0.000 A 
ATOM     16  C   UNL     1     -16.718 -11.540   3.673  0.00  0.00    +0.000 A 
ATOM     17  C   UNL     1     -17.193 -10.692   4.635  0.00  0.00    +0.000 A 
ATOM     18  C   UNL     1     -17.355  -9.337   4.371  0.00  0.00    +0.000 A 
ATOM     19  O   UNL     1     -16.906 -12.901   3.510  0.00  0.00    +0.000 OA
ATOM     20  C   UNL     1     -16.687 -13.193   2.132  0.00  0.00    +0.000 C 
ATOM     21  O   UNL     1     -16.104 -12.023   1.578  0.00  0.00    +0.000 OA
BRANCH  13  23
ATOM     22  C   UNL     1     -15.672  -6.509   3.403  0.00  0.00    +0.000 C 
ATOM     23  O   UNL     1     -16.691  -7.455   3.118  0.00  0.00    +0.000 OA
ENDBRANCH  13  23
ENDBRANCH   1  18
BRANCH   9  24
ATOM     24  O   UNL     1     -20.744  -9.541  10.829  0.00  0.00    +0.000 OA
ATOM     25  C   UNL     1     -20.120 -10.697  11.322  0.00  0.00    +0.000 C 
ENDBRANCH   9  24
BRANCH  10  26
ATOM     26  O   UNL     1     -19.128  -7.349  10.375  0.00  0.00    +0.000 OA
ATOM     27  C   UNL     1     -19.632  -6.016  10.428  0.00  0.00    +0.000 C 
ENDBRANCH  10  26
TORSDOF 4
ENDMDL
MODEL 6
REMARK VINA RESULT:      -5.9     13.950     16.170
REMARK  Name = 
REMARK  4 active torsions:
REMARK  status: ('A' for Active; 'I' for Inactive)
REMARK    1  A    between atoms: O_2  and  C_3
REMARK    2  A    between atoms: C_8  and  C_9
REMARK    3  A    between atoms: C_17  and  O_18
REMARK    4  A    between atoms: C_20  and  O_21
REMARK                            x       y       z     vdW  Elec       q    Type
REMARK                         _______ _______ _______ _____ _____    ______ ____
ROOT
ATOM      1  C   UNL     1     -24.944   7.973  -5.398  0.00  0.00    +0.000 C 
ATOM      2  C   UNL     1     -26.212   8.291  -5.627  0.00  0.00    +0.000 C 
ATOM      3  C   UNL     1     -26.957   8.935  -4.540  0.00  0.00    +0.000 C 
ATOM      4  O   UNL     1     -26.397   9.070  -3.421  0.00  0.00    +0.000 OA
ATOM      5  O   UNL     1     -28.081   9.673  -4.917  0.00  0.00    +0.000 OA
ATOM      6  C   UNL     1     -28.259  10.192  -6.212  0.00  0.00    +0.000 C 
ATOM      7  C   UNL     1     -27.841   9.230  -7.273  0.00  0.00    +0.000 A 
ATOM      8  C   UNL     1     -27.915   9.719  -8.572  0.00  0.00    +0.000 A 
ATOM      9  C   UNL     1     -27.219   9.024  -9.552  0.00  0.00    +0.000 A 
ATOM     10  C   UNL     1     -26.653   7.792  -9.251  0.00  0.00    +0.000 A 
ATOM     11  C   UNL     1     -26.176   7.640  -7.955  0.00  0.00    +0.000 A 
ATOM     12  C   UNL     1     -26.805   8.361  -6.949  0.00  0.00    +0.000 A 
ENDROOT
BRANCH   1  18
ATOM     13  C   UNL     1     -23.631   7.994  -3.272  0.00  0.00    +0.000 A 
ATOM     14  C   UNL     1     -22.692   8.632  -2.469  0.00  0.00    +0.000 A 
ATOM     15  C   UNL     1     -22.452   9.987  -2.648  0.00  0.00    +0.000 A 
ATOM     16  C   UNL     1     -22.720  10.516  -3.889  0.00  0.00    +0.000 A 
ATOM     17  C   UNL     1     -23.458   9.785  -4.779  0.00  0.00    +0.000 A 
ATOM     18  C   UNL     1     -24.136   8.643  -4.371  0.00  0.00    +0.000 A 
ATOM     19  O   UNL     1     -22.374  11.856  -3.902  0.00  0.00    +0.000 OA
ATOM     20  C   UNL     1     -22.099  12.232  -2.555  0.00  0.00    +0.000 C 
ATOM     21  O   UNL     1     -22.026  11.017  -1.822  0.00  0.00    +0.000 OA
BRANCH  13  23
ATOM     22  C   UNL     1     -24.718   6.645  -1.520  0.00  0.00    +0.000 C 
ATOM     23  O   UNL     1     -24.282   6.843  -2.856  0.00  0.00    +0.000 OA
ENDBRANCH  13  23
ENDBRANCH   1  18
BRANCH   9  24
ATOM     24  O   UNL     1     -27.310   9.347 -10.902  0.00  0.00    +0.000 OA
ATOM     25  C   UNL     1     -28.569   9.398 -11.519  0.00  0.00    +0.000 C 
ENDBRANCH   9  24
BRANCH  10  26
ATOM     26  O   UNL     1     -26.487   6.801 -10.220  0.00  0.00    +0.000 OA
ATOM     27  C   UNL     1     -27.573   5.893 -10.396  0.00  0.00    +0.000 C 
ENDBRANCH  10  26
TORSDOF 4
ENDMDL
MODEL 7
REMARK VINA RESULT:      -5.7     13.950     16.776
REMARK  Name = 
REMARK  4 active torsions:
REMARK  status: ('A' for Active; 'I' for Inactive)
REMARK    1  A    between atoms: O_2  and  C_3
REMARK    2  A    between atoms: C_8  and  C_9
REMARK    3  A    between atoms: C_17  and  O_18
REMARK    4  A    between atoms: C_20  and  O_21
REMARK                            x       y       z     vdW  Elec       q    Type
REMARK                         _______ _______ _______ _____ _____    ______ ____
ROOT
ATOM      1  C   UNL     1     -24.336   7.716  -3.362  0.00  0.00    +0.000 C 
ATOM      2  C   UNL     1     -23.636   7.253  -2.334  0.00  0.00    +0.000 C 
ATOM      3  C   UNL     1     -22.585   8.117  -1.784  0.00  0.00    +0.000 C 
ATOM      4  O   UNL     1     -22.334   9.205  -2.363  0.00  0.00    +0.000 OA
ATOM      5  O   UNL     1     -22.197   7.853  -0.469  0.00  0.00    +0.000 OA
ATOM      6  C   UNL     1     -23.016   7.173   0.450  0.00  0.00    +0.000 C 
ATOM      7  C   UNL     1     -23.724   6.013  -0.166  0.00  0.00    +0.000 A 
ATOM      8  C   UNL     1     -24.613   5.353   0.674  0.00  0.00    +0.000 A 
ATOM      9  C   UNL     1     -25.547   4.516   0.078  0.00  0.00    +0.000 A 
ATOM     10  C   UNL     1     -25.440   4.220  -1.274  0.00  0.00    +0.000 A 
ATOM     11  C   UNL     1     -24.939   5.233  -2.084  0.00  0.00    +0.000 A 
ATOM     12  C   UNL     1     -24.046   6.129  -1.514  0.00  0.00    +0.000 A 
ENDROOT
BRANCH   1  18
ATOM     13  C   UNL     1     -24.285   9.692  -4.892  0.00  0.00    +0.000 A 
ATOM     14  C   UNL     1     -24.649  11.012  -5.129  0.00  0.00    +0.000 A 
ATOM     15  C   UNL     1     -24.971  11.832  -4.057  0.00  0.00    +0.000 A 
ATOM     16  C   UNL     1     -25.428  11.223  -2.912  0.00  0.00    +0.000 A 
ATOM     17  C   UNL     1     -25.279   9.871  -2.773  0.00  0.00    +0.000 A 
ATOM     18  C   UNL     1     -24.469   9.152  -3.643  0.00  0.00    +0.000 A 
ATOM     19  O   UNL     1     -25.748  12.189  -1.974  0.00  0.00    +0.000 OA
ATOM     20  C   UNL     1     -25.255  13.432  -2.466  0.00  0.00    +0.000 C 
ATOM     21  O   UNL     1     -24.898  13.197  -3.820  0.00  0.00    +0.000 OA
BRANCH  13  23
ATOM     22  C   UNL     1     -24.020   8.322  -6.923  0.00  0.00    +0.000 C 
ATOM     23  O   UNL     1     -23.494   8.984  -5.782  0.00  0.00    +0.000 OA
ENDBRANCH  13  23
ENDBRANCH   1  18
BRANCH   9  24
ATOM     24  O   UNL     1     -26.409   3.715   0.818  0.00  0.00    +0.000 OA
ATOM     25  C   UNL     1     -27.440   4.310   1.561  0.00  0.00    +0.000 C 
ENDBRANCH   9  24
BRANCH  10  26
ATOM     26  O   UNL     1     -25.898   3.011  -1.803  0.00  0.00    +0.000 OA
ATOM     27  C   UNL     1     -25.087   1.863  -1.563  0.00  0.00    +0.000 C 
ENDBRANCH  10  26
TORSDOF 4
ENDMDL
MODEL 8
REMARK VINA RESULT:      -5.7     15.049     17.062
REMARK  Name = 
REMARK  4 active torsions:
REMARK  status: ('A' for Active; 'I' for Inactive)
REMARK    1  A    between atoms: O_2  and  C_3
REMARK    2  A    between atoms: C_8  and  C_9
REMARK    3  A    between atoms: C_17  and  O_18
REMARK    4  A    between atoms: C_20  and  O_21
REMARK                            x       y       z     vdW  Elec       q    Type
REMARK                         _______ _______ _______ _____ _____    ______ ____
ROOT
ATOM      1  C   UNL     1     -23.118   8.637  -1.608  0.00  0.00    +0.000 C 
ATOM      2  C   UNL     1     -23.258   8.622  -2.927  0.00  0.00    +0.000 C 
ATOM      3  C   UNL     1     -23.759   7.388  -3.542  0.00  0.00    +0.000 C 
ATOM      4  O   UNL     1     -23.943   6.381  -2.811  0.00  0.00    +0.000 OA
ATOM      5  O   UNL     1     -24.340   7.522  -4.805  0.00  0.00    +0.000 OA
ATOM      6  C   UNL     1     -24.863   8.737  -5.284  0.00  0.00    +0.000 C 
ATOM      7  C   UNL     1     -24.000   9.904  -4.940  0.00  0.00    +0.000 A 
ATOM      8  C   UNL     1     -24.508  11.142  -5.315  0.00  0.00    +0.000 A 
ATOM      9  C   UNL     1     -23.946  12.264  -4.722  0.00  0.00    +0.000 A 
ATOM     10  C   UNL     1     -22.800  12.132  -3.949  0.00  0.00    +0.000 A 
ATOM     11  C   UNL     1     -22.682  10.950  -3.227  0.00  0.00    +0.000 A 
ATOM     12  C   UNL     1     -23.279   9.814  -3.755  0.00  0.00    +0.000 A 
ENDROOT
BRANCH   1  18
ATOM     13  C   UNL     1     -23.274   6.975   0.252  0.00  0.00    +0.000 A 
ATOM     14  C   UNL     1     -24.064   6.325   1.193  0.00  0.00    +0.000 A 
ATOM     15  C   UNL     1     -25.436   6.260   1.000  0.00  0.00    +0.000 A 
ATOM     16  C   UNL     1     -26.012   7.242   0.228  0.00  0.00    +0.000 A 
ATOM     17  C   UNL     1     -25.209   8.046  -0.533  0.00  0.00    +0.000 A 
ATOM     18  C   UNL     1     -23.868   7.735  -0.724  0.00  0.00    +0.000 A 
ATOM     19  O   UNL     1     -27.382   7.052   0.187  0.00  0.00    +0.000 OA
ATOM     20  C   UNL     1     -27.646   5.774   0.763  0.00  0.00    +0.000 C 
ATOM     21  O   UNL     1     -26.431   5.370   1.377  0.00  0.00    +0.000 OA
BRANCH  13  23
ATOM     22  C   UNL     1     -21.485   5.547  -0.661  0.00  0.00    +0.000 C 
ATOM     23  O   UNL     1     -21.932   6.666   0.090  0.00  0.00    +0.000 OA
ENDBRANCH  13  23
ENDBRANCH   1  18
BRANCH   9  24
ATOM     24  O   UNL     1     -24.289  13.558  -5.099  0.00  0.00    +0.000 OA
ATOM     25  C   UNL     1     -24.949  13.771  -6.319  0.00  0.00    +0.000 C 
ENDBRANCH   9  24
BRANCH  10  26
ATOM     26  O   UNL     1     -21.868  13.166  -3.830  0.00  0.00    +0.000 OA
ATOM     27  C   UNL     1     -21.883  13.899  -2.607  0.00  0.00    +0.000 C 
ENDBRANCH  10  26
TORSDOF 4
ENDMDL
MODEL 9
REMARK VINA RESULT:      -5.7     33.458     36.538
REMARK  Name = 
REMARK  4 active torsions:
REMARK  status: ('A' for Active; 'I' for Inactive)
REMARK    1  A    between atoms: O_2  and  C_3
REMARK    2  A    between atoms: C_8  and  C_9
REMARK    3  A    between atoms: C_17  and  O_18
REMARK    4  A    between atoms: C_20  and  O_21
REMARK                            x       y       z     vdW  Elec       q    Type
REMARK                         _______ _______ _______ _____ _____    ______ ____
ROOT
ATOM      1  C   UNL     1     -16.981  10.035 -32.816  0.00  0.00    +0.000 C 
ATOM      2  C   UNL     1     -16.421  10.956 -33.591  0.00  0.00    +0.000 C 
ATOM      3  C   UNL     1     -17.282  11.643 -34.559  0.00  0.00    +0.000 C 
ATOM      4  O   UNL     1     -18.477  11.269 -34.676  0.00  0.00    +0.000 OA
ATOM      5  O   UNL     1     -16.830  12.885 -35.011  0.00  0.00    +0.000 OA
ATOM      6  C   UNL     1     -15.911  13.673 -34.296  0.00  0.00    +0.000 C 
ATOM      7  C   UNL     1     -14.810  12.863 -33.698  0.00  0.00    +0.000 A 
ATOM      8  C   UNL     1     -13.916  13.578 -32.909  0.00  0.00    +0.000 A 
ATOM      9  C   UNL     1     -13.102  12.848 -32.053  0.00  0.00    +0.000 A 
ATOM     10  C   UNL     1     -13.067  11.463 -32.151  0.00  0.00    +0.000 A 
ATOM     11  C   UNL     1     -14.257  10.846 -32.518  0.00  0.00    +0.000 A 
ATOM     12  C   UNL     1     -15.129  11.562 -33.326  0.00  0.00    +0.000 A 
ENDROOT
BRANCH   1  18
ATOM     13  C   UNL     1     -19.240   8.968 -32.845  0.00  0.00    +0.000 A 
ATOM     14  C   UNL     1     -20.533   8.925 -32.337  0.00  0.00    +0.000 A 
ATOM     15  C   UNL     1     -21.056  10.046 -31.709  0.00  0.00    +0.000 A 
ATOM     16  C   UNL     1     -20.162  10.930 -31.150  0.00  0.00    +0.000 A 
ATOM     17  C   UNL     1     -18.836  10.828 -31.472  0.00  0.00    +0.000 A 
ATOM     18  C   UNL     1     -18.420  10.020 -32.523  0.00  0.00    +0.000 A 
ATOM     19  O   UNL     1     -20.854  11.952 -30.526  0.00  0.00    +0.000 OA
ATOM     20  C   UNL     1     -22.222  11.827 -30.909  0.00  0.00    +0.000 C 
ATOM     21  O   UNL     1     -22.333  10.558 -31.534  0.00  0.00    +0.000 OA
BRANCH  13  23
ATOM     22  C   UNL     1     -19.676   7.816 -34.979  0.00  0.00    +0.000 C 
ATOM     23  O   UNL     1     -18.837   8.139 -33.880  0.00  0.00    +0.000 OA
ENDBRANCH  13  23
ENDBRANCH   1  18
BRANCH   9  24
ATOM     24  O   UNL     1     -12.092  13.438 -31.301  0.00  0.00    +0.000 OA
ATOM     25  C   UNL     1     -11.111  14.209 -31.944  0.00  0.00    +0.000 C 
ENDBRANCH   9  24
BRANCH  10  26
ATOM     26  O   UNL     1     -11.930  10.729 -31.810  0.00  0.00    +0.000 OA
ATOM     27  C   UNL     1     -11.500   9.746 -32.749  0.00  0.00    +0.000 C 
ENDBRANCH  10  26
TORSDOF 4
ENDMDL
MODEL 10
REMARK VINA RESULT:      -5.6     33.873     37.297
REMARK  Name = 
REMARK  4 active torsions:
REMARK  status: ('A' for Active; 'I' for Inactive)
REMARK    1  A    between atoms: O_2  and  C_3
REMARK    2  A    between atoms: C_8  and  C_9
REMARK    3  A    between atoms: C_17  and  O_18
REMARK    4  A    between atoms: C_20  and  O_21
REMARK                            x       y       z     vdW  Elec       q    Type
REMARK                         _______ _______ _______ _____ _____    ______ ____
ROOT
ATOM      1  C   UNL     1     -10.418  19.172 -20.694  0.00  0.00    +0.000 C 
ATOM      2  C   UNL     1     -10.008  20.416 -20.483  0.00  0.00    +0.000 C 
ATOM      3  C   UNL     1     -10.996  21.490 -20.625  0.00  0.00    +0.000 C 
ATOM      4  O   UNL     1     -12.152  21.198 -21.026  0.00  0.00    +0.000 OA
ATOM      5  O   UNL     1     -10.705  22.686 -19.964  0.00  0.00    +0.000 OA
ATOM      6  C   UNL     1      -9.827  22.762 -18.868  0.00  0.00    +0.000 C 
ATOM      7  C   UNL     1      -8.612  21.915 -19.052  0.00  0.00    +0.000 A 
ATOM      8  C   UNL     1      -7.746  21.886 -17.965  0.00  0.00    +0.000 A 
ATOM      9  C   UNL     1      -6.807  20.863 -17.930  0.00  0.00    +0.000 A 
ATOM     10  C   UNL     1      -6.637  20.048 -19.041  0.00  0.00    +0.000 A 
ATOM     11  C   UNL     1      -7.779  19.788 -19.789  0.00  0.00    +0.000 A 
ATOM     12  C   UNL     1      -8.771  20.758 -19.806  0.00  0.00    +0.000 A 
ENDROOT
BRANCH   1  18
ATOM     13  C   UNL     1     -12.538  18.193 -21.585  0.00  0.00    +0.000 A 
ATOM     14  C   UNL     1     -13.785  17.637 -21.322  0.00  0.00    +0.000 A 
ATOM     15  C   UNL     1     -14.393  17.878 -20.099  0.00  0.00    +0.000 A 
ATOM     16  C   UNL     1     -13.575  18.181 -19.036  0.00  0.00    +0.000 A 
ATOM     17  C   UNL     1     -12.268  18.508 -19.275  0.00  0.00    +0.000 A 
ATOM     18  C   UNL     1     -11.826  18.773 -20.565  0.00  0.00    +0.000 A 
ATOM     19  O   UNL     1     -14.341  18.338 -17.895  0.00  0.00    +0.000 OA
ATOM     20  C   UNL     1     -15.706  18.363 -18.306  0.00  0.00    +0.000 C 
ATOM     21  O   UNL     1     -15.708  17.942 -19.662  0.00  0.00    +0.000 OA
BRANCH  13  23
ATOM     22  C   UNL     1     -12.894  19.116 -23.841  0.00  0.00    +0.000 C 
ATOM     23  O   UNL     1     -12.105  18.431 -22.880  0.00  0.00    +0.000 OA
ENDBRANCH  13  23
ENDBRANCH   1  18
BRANCH   9  24
ATOM     24  O   UNL     1      -5.816  20.794 -16.958  0.00  0.00    +0.000 OA
ATOM     25  C   UNL     1      -5.504  21.937 -16.205  0.00  0.00    +0.000 C 
ENDBRANCH   9  24
BRANCH  10  26
ATOM     26  O   UNL     1      -5.410  19.449 -19.334  0.00  0.00    +0.000 OA
ATOM     27  C   UNL     1      -4.508  20.203 -20.142  0.00  0.00    +0.000 C 
ENDBRANCH  10  26
TORSDOF 4
ENDMDL
