MODEL 1
REMARK VINA RESULT:      -5.5      0.000      0.000
REMARK  Name = 
REMARK  7 active torsions:
REMARK  status: ('A' for Active; 'I' for Inactive)
REMARK    1  A    between atoms: O_2  and  C_3
REMARK    2  A    between atoms: C_6  and  C_7
REMARK    3  A    between atoms: C_8  and  C_9
REMARK    4  A    between atoms: C_11  and  O_12
REMARK    5  A    between atoms: C_14  and  O_15
REMARK    6  A    between atoms: C_17  and  O_18
REMARK    7  A    between atoms: C_20  and  O_21
REMARK                            x       y       z     vdW  Elec       q    Type
REMARK                         _______ _______ _______ _____ _____    ______ ____
ROOT
ATOM      1  C   UNL     1     -31.386   8.482 -11.494  0.00  0.00    +0.000 A 
ATOM      2  C   UNL     1     -31.964   9.721 -11.749  0.00  0.00    +0.000 A 
ATOM      3  C   UNL     1     -33.241  10.048 -11.376  0.00  0.00    +0.000 A 
ATOM      4  C   UNL     1     -34.147   8.998 -11.323  0.00  0.00    +0.000 A 
ATOM      5  C   UNL     1     -33.629   7.799 -10.851  0.00  0.00    +0.000 A 
ATOM      6  C   UNL     1     -32.270   7.542 -10.971  0.00  0.00    +0.000 A 
ENDROOT
BRANCH   1   8
ATOM      7  C   UNL     1     -29.141   8.628 -12.191  0.00  0.00    +0.000 C 
ATOM      8  C   UNL     1     -30.293   7.969 -12.331  0.00  0.00    +0.000 C 
BRANCH   7  12
ATOM      9  C   UNL     1     -26.258   8.536  -9.271  0.00  0.00    +0.000 A 
ATOM     10  C   UNL     1     -26.963   7.380  -9.553  0.00  0.00    +0.000 A 
ATOM     11  C   UNL     1     -28.099   7.431 -10.354  0.00  0.00    +0.000 A 
ATOM     12  C   UNL     1     -28.618   8.636 -10.817  0.00  0.00    +0.000 A 
ATOM     13  C   UNL     1     -27.870   9.756 -10.470  0.00  0.00    +0.000 A 
ATOM     14  C   UNL     1     -26.936   9.732  -9.455  0.00  0.00    +0.000 A 
ATOM     15  O   UNL     1     -26.662  10.842  -8.657  0.00  0.00    +0.000 OA
BRANCH   9  17
ATOM     16  C   UNL     1     -24.826   8.215  -7.342  0.00  0.00    +0.000 C 
ATOM     17  O   UNL     1     -24.999   8.555  -8.714  0.00  0.00    +0.000 OA
ENDBRANCH   9  17
ENDBRANCH   7  12
ENDBRANCH   1   8
BRANCH   3  18
ATOM     18  O   UNL     1     -33.726  11.356 -11.363  0.00  0.00    +0.000 OA
ATOM     19  C   UNL     1     -33.661  12.145 -12.548  0.00  0.00    +0.000 C 
ENDBRANCH   3  18
BRANCH   4  20
ATOM     20  O   UNL     1     -35.518   9.190 -11.511  0.00  0.00    +0.000 OA
ATOM     21  C   UNL     1     -35.947   9.112 -12.870  0.00  0.00    +0.000 C 
ENDBRANCH   4  20
BRANCH   5  22
ATOM     22  O   UNL     1     -34.565   6.779 -10.650  0.00  0.00    +0.000 OA
ATOM     23  C   UNL     1     -35.103   6.679  -9.342  0.00  0.00    +0.000 C 
ENDBRANCH   5  22
BRANCH   6  24
ATOM     24  O   UNL     1     -31.819   6.271 -10.609  0.00  0.00    +0.000 OA
ATOM     25  C   UNL     1     -31.402   5.947  -9.305  0.00  0.00    +0.000 C 
ENDBRANCH   6  24
TORSDOF 7
ENDMDL
MODEL 2
REMARK VINA RESULT:      -5.3     12.818     14.744
REMARK  Name = 
REMARK  7 active torsions:
REMARK  status: ('A' for Active; 'I' for Inactive)
REMARK    1  A    between atoms: O_2  and  C_3
REMARK    2  A    between atoms: C_6  and  C_7
REMARK    3  A    between atoms: C_8  and  C_9
REMARK    4  A    between atoms: C_11  and  O_12
REMARK    5  A    between atoms: C_14  and  O_15
REMARK    6  A    between atoms: C_17  and  O_18
REMARK    7  A    between atoms: C_20  and  O_21
REMARK                            x       y       z     vdW  Elec       q    Type
REMARK                         _______ _______ _______ _____ _____    ______ ____
ROOT
ATOM      1  C   UNL     1     -34.843  -3.003  -5.430  0.00  0.00    +0.000 A 
ATOM      2  C   UNL     1     -35.712  -2.293  -4.608  0.00  0.00    +0.000 A 
ATOM      3  C   UNL     1     -37.059  -2.198  -4.839  0.00  0.00    +0.000 A 
ATOM      4  C   UNL     1     -37.454  -2.255  -6.168  0.00  0.00    +0.000 A 
ATOM      5  C   UNL     1     -36.729  -3.138  -6.958  0.00  0.00    +0.000 A 
ATOM      6  C   UNL     1     -35.430  -3.473  -6.601  0.00  0.00    +0.000 A 
ENDROOT
BRANCH   1   8
ATOM      7  C   UNL     1     -32.715  -3.029  -4.419  0.00  0.00    +0.000 C 
ATOM      8  C   UNL     1     -33.415  -2.663  -5.495  0.00  0.00    +0.000 C 
BRANCH   7  12
ATOM      9  C   UNL     1     -31.296  -6.649  -3.105  0.00  0.00    +0.000 A 
ATOM     10  C   UNL     1     -31.310  -6.388  -4.463  0.00  0.00    +0.000 A 
ATOM     11  C   UNL     1     -31.999  -5.285  -4.957  0.00  0.00    +0.000 A 
ATOM     12  C   UNL     1     -32.768  -4.470  -4.132  0.00  0.00    +0.000 A 
ATOM     13  C   UNL     1     -32.726  -4.811  -2.785  0.00  0.00    +0.000 A 
ATOM     14  C   UNL     1     -32.293  -6.048  -2.351  0.00  0.00    +0.000 A 
ATOM     15  O   UNL     1     -32.806  -6.669  -1.213  0.00  0.00    +0.000 OA
BRANCH   9  17
ATOM     16  C   UNL     1     -29.187  -7.843  -3.098  0.00  0.00    +0.000 C 
ATOM     17  O   UNL     1     -30.445  -7.548  -2.501  0.00  0.00    +0.000 OA
ENDBRANCH   9  17
ENDBRANCH   7  12
ENDBRANCH   1   8
BRANCH   3  18
ATOM     18  O   UNL     1     -37.972  -1.745  -3.885  0.00  0.00    +0.000 OA
ATOM     19  C   UNL     1     -38.463  -2.646  -2.896  0.00  0.00    +0.000 C 
ENDBRANCH   3  18
BRANCH   4  20
ATOM     20  O   UNL     1     -38.627  -1.647  -6.621  0.00  0.00    +0.000 OA
ATOM     21  C   UNL     1     -38.487  -0.269  -6.963  0.00  0.00    +0.000 C 
ENDBRANCH   4  20
BRANCH   5  22
ATOM     22  O   UNL     1     -37.214  -3.317  -8.258  0.00  0.00    +0.000 OA
ATOM     23  C   UNL     1     -38.082  -4.422  -8.451  0.00  0.00    +0.000 C 
ENDBRANCH   5  22
BRANCH   6  24
ATOM     24  O   UNL     1     -34.696  -4.254  -7.496  0.00  0.00    +0.000 OA
ATOM     25  C   UNL     1     -34.752  -5.659  -7.513  0.00  0.00    +0.000 C 
ENDBRANCH   6  24
TORSDOF 7
ENDMDL
MODEL 3
REMARK VINA RESULT:      -5.1     11.626     15.362
REMARK  Name = 
REMARK  7 active torsions:
REMARK  status: ('A' for Active; 'I' for Inactive)
REMARK    1  A    between atoms: O_2  and  C_3
REMARK    2  A    between atoms: C_6  and  C_7
REMARK    3  A    between atoms: C_8  and  C_9
REMARK    4  A    between atoms: C_11  and  O_12
REMARK    5  A    between atoms: C_14  and  O_15
REMARK    6  A    between atoms: C_17  and  O_18
REMARK    7  A    between atoms: C_20  and  O_21
REMARK                            x       y       z     vdW  Elec       q    Type
REMARK                         _______ _______ _______ _____ _____    ______ ____
ROOT
ATOM      1  C   UNL     1     -35.529  -3.082  -4.402  0.00  0.00    +0.000 A 
ATOM      2  C   UNL     1     -34.227  -2.644  -4.616  0.00  0.00    +0.000 A 
ATOM      3  C   UNL     1     -33.139  -3.477  -4.596  0.00  0.00    +0.000 A 
ATOM      4  C   UNL     1     -33.237  -4.587  -3.769  0.00  0.00    +0.000 A 
ATOM      5  C   UNL     1     -34.495  -5.174  -3.721  0.00  0.00    +0.000 A 
ATOM      6  C   UNL     1     -35.620  -4.413  -4.004  0.00  0.00    +0.000 A 
ENDROOT
BRANCH   1   8
ATOM      7  C   UNL     1     -36.689  -1.042  -4.604  0.00  0.00    +0.000 C 
ATOM      8  C   UNL     1     -36.562  -2.167  -3.898  0.00  0.00    +0.000 C 
BRANCH   7  12
ATOM      9  C   UNL     1     -38.898  -0.709  -8.047  0.00  0.00    +0.000 A 
ATOM     10  C   UNL     1     -38.973  -1.879  -7.313  0.00  0.00    +0.000 A 
ATOM     11  C   UNL     1     -38.067  -2.121  -6.286  0.00  0.00    +0.000 A 
ATOM     12  C   UNL     1     -37.008  -1.258  -6.023  0.00  0.00    +0.000 A 
ATOM     13  C   UNL     1     -36.983  -0.118  -6.819  0.00  0.00    +0.000 A 
ATOM     14  C   UNL     1     -37.690  -0.029  -8.001  0.00  0.00    +0.000 A 
ATOM     15  O   UNL     1     -37.240   0.710  -9.094  0.00  0.00    +0.000 OA
BRANCH   9  17
ATOM     16  C   UNL     1     -41.183  -0.855  -8.842  0.00  0.00    +0.000 C 
ATOM     17  O   UNL     1     -39.888  -0.265  -8.895  0.00  0.00    +0.000 OA
ENDBRANCH   9  17
ENDBRANCH   7  12
ENDBRANCH   1   8
BRANCH   3  18
ATOM     18  O   UNL     1     -31.884  -3.114  -5.088  0.00  0.00    +0.000 OA
ATOM     19  C   UNL     1     -31.391  -3.721  -6.280  0.00  0.00    +0.000 C 
ENDBRANCH   3  18
BRANCH   4  20
ATOM     20  O   UNL     1     -32.112  -5.198  -3.209  0.00  0.00    +0.000 OA
ATOM     21  C   UNL     1     -31.730  -4.685  -1.934  0.00  0.00    +0.000 C 
ENDBRANCH   4  20
BRANCH   5  22
ATOM     22  O   UNL     1     -34.568  -6.378  -3.013  0.00  0.00    +0.000 OA
ATOM     23  C   UNL     1     -34.468  -7.562  -3.788  0.00  0.00    +0.000 C 
ENDBRANCH   5  22
BRANCH   6  24
ATOM     24  O   UNL     1     -36.868  -5.009  -3.810  0.00  0.00    +0.000 OA
ATOM     25  C   UNL     1     -37.570  -5.671  -4.833  0.00  0.00    +0.000 C 
ENDBRANCH   6  24
TORSDOF 7
ENDMDL
MODEL 4
REMARK VINA RESULT:      -5.1     17.348     20.641
REMARK  Name = 
REMARK  7 active torsions:
REMARK  status: ('A' for Active; 'I' for Inactive)
REMARK    1  A    between atoms: O_2  and  C_3
REMARK    2  A    between atoms: C_6  and  C_7
REMARK    3  A    between atoms: C_8  and  C_9
REMARK    4  A    between atoms: C_11  and  O_12
REMARK    5  A    between atoms: C_14  and  O_15
REMARK    6  A    between atoms: C_17  and  O_18
REMARK    7  A    between atoms: C_20  and  O_21
REMARK                            x       y       z     vdW  Elec       q    Type
REMARK                         _______ _______ _______ _____ _____    ______ ____
ROOT
ATOM      1  C   UNL     1     -15.189  17.686  -1.401  0.00  0.00    +0.000 A 
ATOM      2  C   UNL     1     -16.548  17.745  -1.688  0.00  0.00    +0.000 A 
ATOM      3  C   UNL     1     -17.054  17.656  -2.959  0.00  0.00    +0.000 A 
ATOM      4  C   UNL     1     -16.236  18.133  -3.974  0.00  0.00    +0.000 A 
ATOM      5  C   UNL     1     -14.881  17.880  -3.804  0.00  0.00    +0.000 A 
ATOM      6  C   UNL     1     -14.371  17.694  -2.527  0.00  0.00    +0.000 A 
ENDROOT
BRANCH   1   8
ATOM      7  C   UNL     1     -14.843  17.591   0.928  0.00  0.00    +0.000 C 
ATOM      8  C   UNL     1     -14.646  18.304  -0.183  0.00  0.00    +0.000 C 
BRANCH   7  12
ATOM      9  C   UNL     1     -13.566  13.999   2.449  0.00  0.00    +0.000 A 
ATOM     10  C   UNL     1     -12.628  14.971   2.150  0.00  0.00    +0.000 A 
ATOM     11  C   UNL     1     -12.995  16.094   1.416  0.00  0.00    +0.000 A 
ATOM     12  C   UNL     1     -14.270  16.237   0.880  0.00  0.00    +0.000 A 
ATOM     13  C   UNL     1     -15.148  15.207   1.200  0.00  0.00    +0.000 A 
ATOM     14  C   UNL     1     -14.710  13.984   1.666  0.00  0.00    +0.000 A 
ATOM     15  O   UNL     1     -15.375  12.791   1.389  0.00  0.00    +0.000 OA
BRANCH   9  17
ATOM     16  C   UNL     1     -12.259  12.117   3.239  0.00  0.00    +0.000 C 
ATOM     17  O   UNL     1     -13.370  12.997   3.374  0.00  0.00    +0.000 OA
ENDBRANCH   9  17
ENDBRANCH   7  12
ENDBRANCH   1   8
BRANCH   3  18
ATOM     18  O   UNL     1     -18.402  17.423  -3.234  0.00  0.00    +0.000 OA
ATOM     19  C   UNL     1     -19.400  18.210  -2.589  0.00  0.00    +0.000 C 
ENDBRANCH   3  18
BRANCH   4  20
ATOM     20  O   UNL     1     -16.754  18.625  -5.175  0.00  0.00    +0.000 OA
ATOM     21  C   UNL     1     -17.055  20.020  -5.164  0.00  0.00    +0.000 C 
ENDBRANCH   4  20
BRANCH   5  22
ATOM     22  O   UNL     1     -14.067  18.220  -4.889  0.00  0.00    +0.000 OA
ATOM     23  C   UNL     1     -13.725  17.159  -5.766  0.00  0.00    +0.000 C 
ENDBRANCH   5  22
BRANCH   6  24
ATOM     24  O   UNL     1     -12.985  17.578  -2.396  0.00  0.00    +0.000 OA
ATOM     25  C   UNL     1     -12.115  18.681  -2.454  0.00  0.00    +0.000 C 
ENDBRANCH   6  24
TORSDOF 7
ENDMDL
MODEL 5
REMARK VINA RESULT:      -5.1     20.088     22.414
REMARK  Name = 
REMARK  7 active torsions:
REMARK  status: ('A' for Active; 'I' for Inactive)
REMARK    1  A    between atoms: O_2  and  C_3
REMARK    2  A    between atoms: C_6  and  C_7
REMARK    3  A    between atoms: C_8  and  C_9
REMARK    4  A    between atoms: C_11  and  O_12
REMARK    5  A    between atoms: C_14  and  O_15
REMARK    6  A    between atoms: C_17  and  O_18
REMARK    7  A    between atoms: C_20  and  O_21
REMARK                            x       y       z     vdW  Elec       q    Type
REMARK                         _______ _______ _______ _____ _____    ______ ____
ROOT
ATOM      1  C   UNL     1     -15.101  18.270 -21.679  0.00  0.00    +0.000 A 
ATOM      2  C   UNL     1     -15.581  18.744 -22.895  0.00  0.00    +0.000 A 
ATOM      3  C   UNL     1     -16.789  19.375 -23.033  0.00  0.00    +0.000 A 
ATOM      4  C   UNL     1     -17.781  18.995 -22.139  0.00  0.00    +0.000 A 
ATOM      5  C   UNL     1     -17.338  18.734 -20.849  0.00  0.00    +0.000 A 
ATOM      6  C   UNL     1     -16.022  18.345 -20.639  0.00  0.00    +0.000 A 
ENDROOT
BRANCH   1   8
ATOM      7  C   UNL     1     -12.947  17.455 -22.177  0.00  0.00    +0.000 C 
ATOM      8  C   UNL     1     -14.129  17.169 -21.626  0.00  0.00    +0.000 C 
BRANCH   7  12
ATOM      9  C   UNL     1      -9.749  19.796 -21.111  0.00  0.00    +0.000 A 
ATOM     10  C   UNL     1     -10.325  18.975 -20.158  0.00  0.00    +0.000 A 
ATOM     11  C   UNL     1     -11.545  18.358 -20.412  0.00  0.00    +0.000 A 
ATOM     12  C   UNL     1     -12.269  18.612 -21.572  0.00  0.00    +0.000 A 
ATOM     13  C   UNL     1     -11.638  19.468 -22.469  0.00  0.00    +0.000 A 
ATOM     14  C   UNL     1     -10.594  20.288 -22.094  0.00  0.00    +0.000 A 
ATOM     15  O   UNL     1     -10.376  21.539 -22.669  0.00  0.00    +0.000 OA
BRANCH   9  17
ATOM     16  C   UNL     1      -7.748  20.250 -19.820  0.00  0.00    +0.000 C 
ATOM     17  O   UNL     1      -8.445  20.238 -21.061  0.00  0.00    +0.000 OA
ENDBRANCH   9  17
ENDBRANCH   7  12
ENDBRANCH   1   8
BRANCH   3  18
ATOM     18  O   UNL     1     -17.151  20.103 -24.168  0.00  0.00    +0.000 OA
ATOM     19  C   UNL     1     -16.137  20.658 -25.002  0.00  0.00    +0.000 C 
ENDBRANCH   3  18
BRANCH   4  20
ATOM     20  O   UNL     1     -19.139  19.089 -22.452  0.00  0.00    +0.000 OA
ATOM     21  C   UNL     1     -19.646  18.002 -23.225  0.00  0.00    +0.000 C 
ENDBRANCH   4  20
BRANCH   5  22
ATOM     22  O   UNL     1     -18.343  18.499 -19.906  0.00  0.00    +0.000 OA
ATOM     23  C   UNL     1     -18.635  19.574 -19.027  0.00  0.00    +0.000 C 
ENDBRANCH   5  22
BRANCH   6  24
ATOM     24  O   UNL     1     -15.661  17.962 -19.345  0.00  0.00    +0.000 OA
ATOM     25  C   UNL     1     -14.932  18.790 -18.474  0.00  0.00    +0.000 C 
ENDBRANCH   6  24
TORSDOF 7
ENDMDL
MODEL 6
REMARK VINA RESULT:      -5.0      3.757      6.751
REMARK  Name = 
REMARK  7 active torsions:
REMARK  status: ('A' for Active; 'I' for Inactive)
REMARK    1  A    between atoms: O_2  and  C_3
REMARK    2  A    between atoms: C_6  and  C_7
REMARK    3  A    between atoms: C_8  and  C_9
REMARK    4  A    between atoms: C_11  and  O_12
REMARK    5  A    between atoms: C_14  and  O_15
REMARK    6  A    between atoms: C_17  and  O_18
REMARK    7  A    between atoms: C_20  and  O_21
REMARK                            x       y       z     vdW  Elec       q    Type
REMARK                         _______ _______ _______ _____ _____    ______ ____
ROOT
ATOM      1  C   UNL     1     -26.174   8.593  -7.449  0.00  0.00    +0.000 A 
ATOM      2  C   UNL     1     -26.050   9.318  -8.629  0.00  0.00    +0.000 A 
ATOM      3  C   UNL     1     -27.090   9.994  -9.210  0.00  0.00    +0.000 A 
ATOM      4  C   UNL     1     -28.356   9.464  -8.998  0.00  0.00    +0.000 A 
ATOM      5  C   UNL     1     -28.564   8.932  -7.732  0.00  0.00    +0.000 A 
ATOM      6  C   UNL     1     -27.482   8.475  -6.991  0.00  0.00    +0.000 A 
ENDROOT
BRANCH   1   8
ATOM      7  C   UNL     1     -24.097   7.856  -6.615  0.00  0.00    +0.000 C 
ATOM      8  C   UNL     1     -25.263   7.480  -7.145  0.00  0.00    +0.000 C 
BRANCH   7  12
ATOM      9  C   UNL     1     -22.932   9.259  -2.937  0.00  0.00    +0.000 A 
ATOM     10  C   UNL     1     -23.825   8.204  -3.000  0.00  0.00    +0.000 A 
ATOM     11  C   UNL     1     -24.423   7.865  -4.209  0.00  0.00    +0.000 A 
ATOM     12  C   UNL     1     -24.227   8.616  -5.362  0.00  0.00    +0.000 A 
ATOM     13  C   UNL     1     -23.338   9.676  -5.215  0.00  0.00    +0.000 A 
ATOM     14  C   UNL     1     -22.986  10.175  -3.977  0.00  0.00    +0.000 A 
ATOM     15  O   UNL     1     -22.684  11.519  -3.765  0.00  0.00    +0.000 OA
BRANCH   9  17
ATOM     16  C   UNL     1     -22.441   8.997  -0.579  0.00  0.00    +0.000 C 
ATOM     17  O   UNL     1     -22.104   9.506  -1.865  0.00  0.00    +0.000 OA
ENDBRANCH   9  17
ENDBRANCH   7  12
ENDBRANCH   1   8
BRANCH   3  18
ATOM     18  O   UNL     1     -26.921  10.948 -10.214  0.00  0.00    +0.000 OA
ATOM     19  C   UNL     1     -27.155  12.325  -9.927  0.00  0.00    +0.000 C 
ENDBRANCH   3  18
BRANCH   4  20
ATOM     20  O   UNL     1     -29.402   9.654  -9.904  0.00  0.00    +0.000 OA
ATOM     21  C   UNL     1     -29.478   8.673 -10.937  0.00  0.00    +0.000 C 
ENDBRANCH   4  20
BRANCH   5  22
ATOM     22  O   UNL     1     -29.876   8.534  -7.458  0.00  0.00    +0.000 OA
ATOM     23  C   UNL     1     -30.696   9.496  -6.813  0.00  0.00    +0.000 C 
ENDBRANCH   5  22
BRANCH   6  24
ATOM     24  O   UNL     1     -27.755   7.826  -5.785  0.00  0.00    +0.000 OA
ATOM     25  C   UNL     1     -27.933   8.508  -4.569  0.00  0.00    +0.000 C 
ENDBRANCH   6  24
TORSDOF 7
ENDMDL
MODEL 7
REMARK VINA RESULT:      -4.9      2.631      4.794
REMARK  Name = 
REMARK  7 active torsions:
REMARK  status: ('A' for Active; 'I' for Inactive)
REMARK    1  A    between atoms: O_2  and  C_3
REMARK    2  A    between atoms: C_6  and  C_7
REMARK    3  A    between atoms: C_8  and  C_9
REMARK    4  A    between atoms: C_11  and  O_12
REMARK    5  A    between atoms: C_14  and  O_15
REMARK    6  A    between atoms: C_17  and  O_18
REMARK    7  A    between atoms: C_20  and  O_21
REMARK                            x       y       z     vdW  Elec       q    Type
REMARK                         _______ _______ _______ _____ _____    ______ ____
ROOT
ATOM      1  C   UNL     1     -28.100   8.656  -9.178  0.00  0.00    +0.000 A 
ATOM      2  C   UNL     1     -29.407   9.120  -9.080  0.00  0.00    +0.000 A 
ATOM      3  C   UNL     1     -30.502   8.356  -9.390  0.00  0.00    +0.000 A 
ATOM      4  C   UNL     1     -30.313   7.388 -10.366  0.00  0.00    +0.000 A 
ATOM      5  C   UNL     1     -29.078   6.753 -10.332  0.00  0.00    +0.000 A 
ATOM      6  C   UNL     1     -27.986   7.403  -9.772  0.00  0.00    +0.000 A 
ENDROOT
BRANCH   1   8
ATOM      7  C   UNL     1     -26.561  10.183  -8.256  0.00  0.00    +0.000 C 
ATOM      8  C   UNL     1     -26.979   9.586  -9.374  0.00  0.00    +0.000 C 
BRANCH   7  12
ATOM      9  C   UNL     1     -24.264   8.875  -5.116  0.00  0.00    +0.000 A 
ATOM     10  C   UNL     1     -24.002   8.391  -6.385  0.00  0.00    +0.000 A 
ATOM     11  C   UNL     1     -24.901   8.620  -7.420  0.00  0.00    +0.000 A 
ATOM     12  C   UNL     1     -26.123   9.250  -7.207  0.00  0.00    +0.000 A 
ATOM     13  C   UNL     1     -26.326   9.684  -5.901  0.00  0.00    +0.000 A 
ATOM     14  C   UNL     1     -25.583   9.205  -4.842  0.00  0.00    +0.000 A 
ATOM     15  O   UNL     1     -26.105   9.067  -3.557  0.00  0.00    +0.000 OA
BRANCH   9  17
ATOM     16  C   UNL     1     -22.566  10.108  -3.903  0.00  0.00    +0.000 C 
ATOM     17  O   UNL     1     -23.333   8.925  -4.102  0.00  0.00    +0.000 OA
ENDBRANCH   9  17
ENDBRANCH   7  12
ENDBRANCH   1   8
BRANCH   3  18
ATOM     18  O   UNL     1     -31.805   8.700  -9.026  0.00  0.00    +0.000 OA
ATOM     19  C   UNL     1     -32.375   9.913  -9.509  0.00  0.00    +0.000 C 
ENDBRANCH   3  18
BRANCH   4  20
ATOM     20  O   UNL     1     -31.359   6.931 -11.171  0.00  0.00    +0.000 OA
ATOM     21  C   UNL     1     -32.247   6.018 -10.529  0.00  0.00    +0.000 C 
ENDBRANCH   4  20
BRANCH   5  22
ATOM     22  O   UNL     1     -28.933   5.675 -11.210  0.00  0.00    +0.000 OA
ATOM     23  C   UNL     1     -28.968   4.385 -10.621  0.00  0.00    +0.000 C 
ENDBRANCH   5  22
BRANCH   6  24
ATOM     24  O   UNL     1     -26.740   6.782  -9.883  0.00  0.00    +0.000 OA
ATOM     25  C   UNL     1     -25.959   6.832 -11.052  0.00  0.00    +0.000 C 
ENDBRANCH   6  24
TORSDOF 7
ENDMDL
MODEL 8
REMARK VINA RESULT:      -4.9     25.328     27.597
REMARK  Name = 
REMARK  7 active torsions:
REMARK  status: ('A' for Active; 'I' for Inactive)
REMARK    1  A    between atoms: O_2  and  C_3
REMARK    2  A    between atoms: C_6  and  C_7
REMARK    3  A    between atoms: C_8  and  C_9
REMARK    4  A    between atoms: C_11  and  O_12
REMARK    5  A    between atoms: C_14  and  O_15
REMARK    6  A    between atoms: C_17  and  O_18
REMARK    7  A    between atoms: C_20  and  O_21
REMARK                            x       y       z     vdW  Elec       q    Type
REMARK                         _______ _______ _______ _____ _____    ______ ____
ROOT
ATOM      1  C   UNL     1     -17.811  -7.312   4.131  0.00  0.00    +0.000 A 
ATOM      2  C   UNL     1     -18.775  -8.277   3.857  0.00  0.00    +0.000 A 
ATOM      3  C   UNL     1     -19.750  -8.640   4.748  0.00  0.00    +0.000 A 
ATOM      4  C   UNL     1     -19.419  -8.532   6.092  0.00  0.00    +0.000 A 
ATOM      5  C   UNL     1     -18.632  -7.434   6.415  0.00  0.00    +0.000 A 
ATOM      6  C   UNL     1     -17.818  -6.861   5.447  0.00  0.00    +0.000 A 
ENDROOT
BRANCH   1   8
ATOM      7  C   UNL     1     -15.648  -8.221   3.915  0.00  0.00    +0.000 C 
ATOM      8  C   UNL     1     -16.513  -7.322   3.441  0.00  0.00    +0.000 C 
BRANCH   7  12
ATOM      9  C   UNL     1     -15.327 -12.311   3.786  0.00  0.00    +0.000 A 
ATOM     10  C   UNL     1     -15.592 -11.622   2.616  0.00  0.00    +0.000 A 
ATOM     11  C   UNL     1     -15.945 -10.278   2.660  0.00  0.00    +0.000 A 
ATOM     12  C   UNL     1     -16.136  -9.607   3.864  0.00  0.00    +0.000 A 
ATOM     13  C   UNL     1     -15.876 -10.372   4.996  0.00  0.00    +0.000 A 
ATOM     14  C   UNL     1     -15.817 -11.750   4.956  0.00  0.00    +0.000 A 
ATOM     15  O   UNL     1     -16.209 -12.552   6.027  0.00  0.00    +0.000 OA
BRANCH   9  17
ATOM     16  C   UNL     1     -13.352 -13.659   4.180  0.00  0.00    +0.000 C 
ATOM     17  O   UNL     1     -14.728 -13.550   3.833  0.00  0.00    +0.000 OA
ENDBRANCH   9  17
ENDBRANCH   7  12
ENDBRANCH   1   8
BRANCH   3  18
ATOM     18  O   UNL     1     -20.880  -9.379   4.392  0.00  0.00    +0.000 OA
ATOM     19  C   UNL     1     -20.741 -10.751   4.034  0.00  0.00    +0.000 C 
ENDBRANCH   3  18
BRANCH   4  20
ATOM     20  O   UNL     1     -20.014  -9.331   7.071  0.00  0.00    +0.000 OA
ATOM     21  C   UNL     1     -19.281 -10.509   7.402  0.00  0.00    +0.000 C 
ENDBRANCH   4  20
BRANCH   5  22
ATOM     22  O   UNL     1     -18.419  -7.230   7.782  0.00  0.00    +0.000 OA
ATOM     23  C   UNL     1     -19.260  -6.273   8.407  0.00  0.00    +0.000 C 
ENDBRANCH   5  22
BRANCH   6  24
ATOM     24  O   UNL     1     -16.946  -5.849   5.854  0.00  0.00    +0.000 OA
ATOM     25  C   UNL     1     -17.279  -4.484   5.804  0.00  0.00    +0.000 C 
ENDBRANCH   6  24
TORSDOF 7
ENDMDL
MODEL 9
REMARK VINA RESULT:      -4.9     12.355     13.583
REMARK  Name = 
REMARK  7 active torsions:
REMARK  status: ('A' for Active; 'I' for Inactive)
REMARK    1  A    between atoms: O_2  and  C_3
REMARK    2  A    between atoms: C_6  and  C_7
REMARK    3  A    between atoms: C_8  and  C_9
REMARK    4  A    between atoms: C_11  and  O_12
REMARK    5  A    between atoms: C_14  and  O_15
REMARK    6  A    between atoms: C_17  and  O_18
REMARK    7  A    between atoms: C_20  and  O_21
REMARK                            x       y       z     vdW  Elec       q    Type
REMARK                         _______ _______ _______ _____ _____    ______ ____
ROOT
ATOM      1  C   UNL     1     -37.275  -3.205  -7.193  0.00  0.00    +0.000 A 
ATOM      2  C   UNL     1     -37.555  -3.157  -8.554  0.00  0.00    +0.000 A 
ATOM      3  C   UNL     1     -38.105  -2.065  -9.172  0.00  0.00    +0.000 A 
ATOM      4  C   UNL     1     -38.943  -1.282  -8.391  0.00  0.00    +0.000 A 
ATOM      5  C   UNL     1     -38.548  -1.138  -7.068  0.00  0.00    +0.000 A 
ATOM      6  C   UNL     1     -37.752  -2.110  -6.478  0.00  0.00    +0.000 A 
ENDROOT
BRANCH   1   8
ATOM      7  C   UNL     1     -36.126  -5.213  -6.746  0.00  0.00    +0.000 C 
ATOM      8  C   UNL     1     -37.214  -4.488  -6.478  0.00  0.00    +0.000 C 
BRANCH   7  12
ATOM      9  C   UNL     1     -32.118  -4.930  -5.905  0.00  0.00    +0.000 A 
ATOM     10  C   UNL     1     -33.030  -4.821  -4.869  0.00  0.00    +0.000 A 
ATOM     11  C   UNL     1     -34.385  -4.670  -5.143  0.00  0.00    +0.000 A 
ATOM     12  C   UNL     1     -34.860  -4.528  -6.443  0.00  0.00    +0.000 A 
ATOM     13  C   UNL     1     -33.882  -4.620  -7.427  0.00  0.00    +0.000 A 
ATOM     14  C   UNL     1     -32.539  -4.477  -7.146  0.00  0.00    +0.000 A 
ATOM     15  O   UNL     1     -31.635  -3.923  -8.052  0.00  0.00    +0.000 OA
BRANCH   9  17
ATOM     16  C   UNL     1     -29.888  -4.492  -5.064  0.00  0.00    +0.000 C 
ATOM     17  O   UNL     1     -30.812  -5.335  -5.743  0.00  0.00    +0.000 OA
ENDBRANCH   9  17
ENDBRANCH   7  12
ENDBRANCH   1   8
BRANCH   3  18
ATOM     18  O   UNL     1     -38.121  -1.893 -10.557  0.00  0.00    +0.000 OA
ATOM     19  C   UNL     1     -38.327  -3.019 -11.406  0.00  0.00    +0.000 C 
ENDBRANCH   3  18
BRANCH   4  20
ATOM     20  O   UNL     1     -39.974  -0.517  -8.945  0.00  0.00    +0.000 OA
ATOM     21  C   UNL     1     -41.236  -1.178  -9.006  0.00  0.00    +0.000 C 
ENDBRANCH   4  20
BRANCH   5  22
ATOM     22  O   UNL     1     -39.298  -0.231  -6.313  0.00  0.00    +0.000 OA
ATOM     23  C   UNL     1     -38.805   1.098  -6.267  0.00  0.00    +0.000 C 
ENDBRANCH   5  22
BRANCH   6  24
ATOM     24  O   UNL     1     -37.494  -1.991  -5.111  0.00  0.00    +0.000 OA
ATOM     25  C   UNL     1     -36.349  -1.356  -4.598  0.00  0.00    +0.000 C 
ENDBRANCH   6  24
TORSDOF 7
ENDMDL
MODEL 10
REMARK VINA RESULT:      -4.9     12.652     14.786
REMARK  Name = 
REMARK  7 active torsions:
REMARK  status: ('A' for Active; 'I' for Inactive)
REMARK    1  A    between atoms: O_2  and  C_3
REMARK    2  A    between atoms: C_6  and  C_7
REMARK    3  A    between atoms: C_8  and  C_9
REMARK    4  A    between atoms: C_11  and  O_12
REMARK    5  A    between atoms: C_14  and  O_15
REMARK    6  A    between atoms: C_17  and  O_18
REMARK    7  A    between atoms: C_20  and  O_21
REMARK                            x       y       z     vdW  Elec       q    Type
REMARK                         _______ _______ _______ _____ _____    ______ ____
ROOT
ATOM      1  C   UNL     1     -34.446  -4.325  -6.556  0.00  0.00    +0.000 A 
ATOM      2  C   UNL     1     -35.101  -3.099  -6.511  0.00  0.00    +0.000 A 
ATOM      3  C   UNL     1     -36.353  -2.933  -5.980  0.00  0.00    +0.000 A 
ATOM      4  C   UNL     1     -37.201  -4.028  -6.066  0.00  0.00    +0.000 A 
ATOM      5  C   UNL     1     -36.588  -5.261  -5.888  0.00  0.00    +0.000 A 
ATOM      6  C   UNL     1     -35.234  -5.403  -6.165  0.00  0.00    +0.000 A 
ENDROOT
BRANCH   1   8
ATOM      7  C   UNL     1     -32.302  -3.864  -7.418  0.00  0.00    +0.000 C 
ATOM      8  C   UNL     1     -33.410  -4.593  -7.564  0.00  0.00    +0.000 C 
BRANCH   7  12
ATOM      9  C   UNL     1     -32.027  -4.898  -3.455  0.00  0.00    +0.000 A 
ATOM     10  C   UNL     1     -32.180  -3.564  -3.791  0.00  0.00    +0.000 A 
ATOM     11  C   UNL     1     -32.034  -3.154  -5.111  0.00  0.00    +0.000 A 
ATOM     12  C   UNL     1     -31.642  -4.034  -6.115  0.00  0.00    +0.000 A 
ATOM     13  C   UNL     1     -31.481  -5.351  -5.696  0.00  0.00    +0.000 A 
ATOM     14  C   UNL     1     -31.341  -5.688  -4.365  0.00  0.00    +0.000 A 
ATOM     15  O   UNL     1     -30.569  -6.768  -3.939  0.00  0.00    +0.000 OA
BRANCH   9  17
ATOM     16  C   UNL     1     -31.682  -5.087  -1.064  0.00  0.00    +0.000 C 
ATOM     17  O   UNL     1     -32.399  -5.436  -2.243  0.00  0.00    +0.000 OA
ENDBRANCH   9  17
ENDBRANCH   7  12
ENDBRANCH   1   8
BRANCH   3  18
ATOM     18  O   UNL     1     -36.895  -1.686  -5.666  0.00  0.00    +0.000 OA
ATOM     19  C   UNL     1     -37.053  -0.707  -6.690  0.00  0.00    +0.000 C 
ENDBRANCH   3  18
BRANCH   4  20
ATOM     20  O   UNL     1     -38.591  -3.890  -6.103  0.00  0.00    +0.000 OA
ATOM     21  C   UNL     1     -39.134  -3.690  -7.407  0.00  0.00    +0.000 C 
ENDBRANCH   4  20
BRANCH   5  22
ATOM     22  O   UNL     1     -37.453  -6.358  -5.822  0.00  0.00    +0.000 OA
ATOM     23  C   UNL     1     -37.698  -7.032  -7.046  0.00  0.00    +0.000 C 
ENDBRANCH   5  22
BRANCH   6  24
ATOM     24  O   UNL     1     -34.694  -6.689  -6.102  0.00  0.00    +0.000 OA
ATOM     25  C   UNL     1     -34.480  -7.373  -4.892  0.00  0.00    +0.000 C 
ENDBRANCH   6  24
TORSDOF 7
ENDMDL
