MODEL 1
REMARK VINA RESULT:      -6.1      0.000      0.000
REMARK  Name = 
REMARK  5 active torsions:
REMARK  status: ('A' for Active; 'I' for Inactive)
REMARK    1  A    between atoms: O_2  and  C_3
REMARK    2  A    between atoms: C_6  and  C_7
REMARK    3  A    between atoms: C_8  and  C_9
REMARK    4  A    between atoms: C_13  and  O_14
REMARK    5  A    between atoms: C_16  and  O_17
REMARK                            x       y       z     vdW  Elec       q    Type
REMARK                         _______ _______ _______ _____ _____    ______ ____
ROOT
ATOM      1  C   UNL     1     -33.297  -4.404  -4.666  0.00  0.00    +0.000 A 
ATOM      2  C   UNL     1     -32.388  -3.673  -5.420  0.00  0.00    +0.000 A 
ATOM      3  C   UNL     1     -31.022  -3.851  -5.315  0.00  0.00    +0.000 A 
ATOM      4  C   UNL     1     -30.606  -5.117  -4.923  0.00  0.00    +0.000 A 
ATOM      5  C   UNL     1     -31.514  -5.966  -4.300  0.00  0.00    +0.000 A 
ATOM      6  C   UNL     1     -32.757  -5.461  -3.942  0.00  0.00    +0.000 A 
ATOM      7  O   UNL     1     -29.209  -5.095  -4.979  0.00  0.00    +0.000 OA
ATOM      8  C   UNL     1     -28.746  -3.781  -5.170  0.00  0.00    +0.000 C 
ATOM      9  O   UNL     1     -29.895  -3.102  -5.669  0.00  0.00    +0.000 OA
ENDROOT
BRANCH   1  11
ATOM     10  C   UNL     1     -35.636  -4.197  -4.505  0.00  0.00    +0.000 C 
ATOM     11  C   UNL     1     -34.463  -3.769  -4.037  0.00  0.00    +0.000 C 
BRANCH  10  15
ATOM     12  C   UNL     1     -37.544  -3.633  -8.137  0.00  0.00    +0.000 A 
ATOM     13  C   UNL     1     -37.176  -2.559  -7.338  0.00  0.00    +0.000 A 
ATOM     14  C   UNL     1     -36.170  -2.757  -6.402  0.00  0.00    +0.000 A 
ATOM     15  C   UNL     1     -35.810  -4.022  -5.954  0.00  0.00    +0.000 A 
ATOM     16  C   UNL     1     -36.207  -5.077  -6.768  0.00  0.00    +0.000 A 
ATOM     17  C   UNL     1     -37.054  -4.901  -7.849  0.00  0.00    +0.000 A 
ATOM     18  O   UNL     1     -37.038  -5.839  -8.886  0.00  0.00    +0.000 OA
BRANCH  12  20
ATOM     19  C   UNL     1     -37.937  -2.074  -9.942  0.00  0.00    +0.000 C 
ATOM     20  O   UNL     1     -38.021  -3.376  -9.422  0.00  0.00    +0.000 OA
ENDBRANCH  12  20
ENDBRANCH  10  15
ENDBRANCH   1  11
BRANCH   5  21
ATOM     21  O   UNL     1     -31.081  -7.090  -3.590  0.00  0.00    +0.000 OA
ATOM     22  C   UNL     1     -30.210  -7.009  -2.482  0.00  0.00    +0.000 C 
ENDBRANCH   5  21
BRANCH   6  23
ATOM     23  O   UNL     1     -33.449  -6.020  -2.862  0.00  0.00    +0.000 OA
ATOM     24  C   UNL     1     -34.158  -7.222  -3.150  0.00  0.00    +0.000 C 
ENDBRANCH   6  23
TORSDOF 5
ENDMDL
MODEL 2
REMARK VINA RESULT:      -5.9     18.113     19.689
REMARK  Name = 
REMARK  5 active torsions:
REMARK  status: ('A' for Active; 'I' for Inactive)
REMARK    1  A    between atoms: O_2  and  C_3
REMARK    2  A    between atoms: C_6  and  C_7
REMARK    3  A    between atoms: C_8  and  C_9
REMARK    4  A    between atoms: C_13  and  O_14
REMARK    5  A    between atoms: C_16  and  O_17
REMARK                            x       y       z     vdW  Elec       q    Type
REMARK                         _______ _______ _______ _____ _____    ______ ____
ROOT
ATOM      1  C   UNL     1     -18.205  -5.385   6.772  0.00  0.00    +0.000 A 
ATOM      2  C   UNL     1     -17.329  -5.277   5.699  0.00  0.00    +0.000 A 
ATOM      3  C   UNL     1     -16.915  -6.372   4.966  0.00  0.00    +0.000 A 
ATOM      4  C   UNL     1     -17.803  -7.440   4.920  0.00  0.00    +0.000 A 
ATOM      5  C   UNL     1     -18.808  -7.527   5.877  0.00  0.00    +0.000 A 
ATOM      6  C   UNL     1     -18.791  -6.634   6.941  0.00  0.00    +0.000 A 
ATOM      7  O   UNL     1     -17.227  -8.378   4.058  0.00  0.00    +0.000 OA
ATOM      8  C   UNL     1     -15.903  -8.018   3.754  0.00  0.00    +0.000 C 
ATOM      9  O   UNL     1     -15.858  -6.635   4.089  0.00  0.00    +0.000 OA
ENDROOT
BRANCH   1  11
ATOM     10  C   UNL     1     -18.958  -3.775   8.316  0.00  0.00    +0.000 C 
ATOM     11  C   UNL     1     -17.988  -4.641   8.021  0.00  0.00    +0.000 C 
BRANCH  10  15
ATOM     12  C   UNL     1     -19.462  -0.049   6.581  0.00  0.00    +0.000 A 
ATOM     13  C   UNL     1     -18.203  -0.614   6.730  0.00  0.00    +0.000 A 
ATOM     14  C   UNL     1     -18.120  -1.992   6.876  0.00  0.00    +0.000 A 
ATOM     15  C   UNL     1     -19.203  -2.764   7.278  0.00  0.00    +0.000 A 
ATOM     16  C   UNL     1     -20.447  -2.164   7.131  0.00  0.00    +0.000 A 
ATOM     17  C   UNL     1     -20.592  -0.831   6.783  0.00  0.00    +0.000 A 
ATOM     18  O   UNL     1     -21.786  -0.408   6.189  0.00  0.00    +0.000 OA
BRANCH  12  20
ATOM     19  C   UNL     1     -19.255   1.108   4.469  0.00  0.00    +0.000 C 
ATOM     20  O   UNL     1     -19.584   1.123   5.834  0.00  0.00    +0.000 OA
ENDBRANCH  12  20
ENDBRANCH  10  15
ENDBRANCH   1  11
BRANCH   5  21
ATOM     21  O   UNL     1     -19.500  -8.722   6.090  0.00  0.00    +0.000 OA
ATOM     22  C   UNL     1     -20.762  -8.990   5.518  0.00  0.00    +0.000 C 
ENDBRANCH   5  21
BRANCH   6  23
ATOM     23  O   UNL     1     -19.361  -7.001   8.164  0.00  0.00    +0.000 OA
ATOM     24  C   UNL     1     -18.657  -8.010   8.885  0.00  0.00    +0.000 C 
ENDBRANCH   6  23
TORSDOF 5
ENDMDL
MODEL 3
REMARK VINA RESULT:      -5.9     17.512     19.936
REMARK  Name = 
REMARK  5 active torsions:
REMARK  status: ('A' for Active; 'I' for Inactive)
REMARK    1  A    between atoms: O_2  and  C_3
REMARK    2  A    between atoms: C_6  and  C_7
REMARK    3  A    between atoms: C_8  and  C_9
REMARK    4  A    between atoms: C_13  and  O_14
REMARK    5  A    between atoms: C_16  and  O_17
REMARK                            x       y       z     vdW  Elec       q    Type
REMARK                         _______ _______ _______ _____ _____    ______ ____
ROOT
ATOM      1  C   UNL     1     -20.391  -4.857   9.141  0.00  0.00    +0.000 A 
ATOM      2  C   UNL     1     -19.293  -5.518   8.606  0.00  0.00    +0.000 A 
ATOM      3  C   UNL     1     -19.275  -6.884   8.401  0.00  0.00    +0.000 A 
ATOM      4  C   UNL     1     -20.510  -7.477   8.172  0.00  0.00    +0.000 A 
ATOM      5  C   UNL     1     -21.666  -6.799   8.541  0.00  0.00    +0.000 A 
ATOM      6  C   UNL     1     -21.543  -5.625   9.274  0.00  0.00    +0.000 A 
ATOM      7  O   UNL     1     -20.243  -8.822   7.898  0.00  0.00    +0.000 OA
ATOM      8  C   UNL     1     -18.899  -9.123   8.181  0.00  0.00    +0.000 C 
ATOM      9  O   UNL     1     -18.277  -7.842   8.198  0.00  0.00    +0.000 OA
ENDROOT
BRANCH   1  11
ATOM     10  C   UNL     1     -20.677  -2.608   9.773  0.00  0.00    +0.000 C 
ATOM     11  C   UNL     1     -20.240  -3.807  10.157  0.00  0.00    +0.000 C 
BRANCH  10  15
ATOM     12  C   UNL     1     -19.138   0.122   7.065  0.00  0.00    +0.000 A 
ATOM     13  C   UNL     1     -18.370  -0.371   8.111  0.00  0.00    +0.000 A 
ATOM     14  C   UNL     1     -18.750  -1.576   8.686  0.00  0.00    +0.000 A 
ATOM     15  C   UNL     1     -20.033  -2.091   8.556  0.00  0.00    +0.000 A 
ATOM     16  C   UNL     1     -20.781  -1.566   7.509  0.00  0.00    +0.000 A 
ATOM     17  C   UNL     1     -20.352  -0.482   6.762  0.00  0.00    +0.000 A 
ATOM     18  O   UNL     1     -20.861  -0.299   5.472  0.00  0.00    +0.000 OA
BRANCH  12  20
ATOM     19  C   UNL     1     -17.240   0.532   5.626  0.00  0.00    +0.000 C 
ATOM     20  O   UNL     1     -18.515   0.899   6.088  0.00  0.00    +0.000 OA
ENDBRANCH  12  20
ENDBRANCH  10  15
ENDBRANCH   1  11
BRANCH   5  21
ATOM     21  O   UNL     1     -22.890  -7.465   8.652  0.00  0.00    +0.000 OA
ATOM     22  C   UNL     1     -23.689  -7.792   7.536  0.00  0.00    +0.000 C 
ENDBRANCH   5  21
BRANCH   6  23
ATOM     23  O   UNL     1     -22.573  -5.233  10.135  0.00  0.00    +0.000 OA
ATOM     24  C   UNL     1     -23.655  -4.544   9.513  0.00  0.00    +0.000 C 
ENDBRANCH   6  23
TORSDOF 5
ENDMDL
MODEL 4
REMARK VINA RESULT:      -5.8     31.913     35.404
REMARK  Name = 
REMARK  5 active torsions:
REMARK  status: ('A' for Active; 'I' for Inactive)
REMARK    1  A    between atoms: O_2  and  C_3
REMARK    2  A    between atoms: C_6  and  C_7
REMARK    3  A    between atoms: C_8  and  C_9
REMARK    4  A    between atoms: C_13  and  O_14
REMARK    5  A    between atoms: C_16  and  O_17
REMARK                            x       y       z     vdW  Elec       q    Type
REMARK                         _______ _______ _______ _____ _____    ______ ____
ROOT
ATOM      1  C   UNL     1      -0.845   0.389   5.947  0.00  0.00    +0.000 A 
ATOM      2  C   UNL     1      -2.132   0.291   5.434  0.00  0.00    +0.000 A 
ATOM      3  C   UNL     1      -3.207  -0.119   6.198  0.00  0.00    +0.000 A 
ATOM      4  C   UNL     1      -3.115   0.141   7.559  0.00  0.00    +0.000 A 
ATOM      5  C   UNL     1      -1.869   0.404   8.117  0.00  0.00    +0.000 A 
ATOM      6  C   UNL     1      -0.739   0.237   7.325  0.00  0.00    +0.000 A 
ATOM      7  O   UNL     1      -4.336  -0.264   8.109  0.00  0.00    +0.000 OA
ATOM      8  C   UNL     1      -5.088  -0.979   7.161  0.00  0.00    +0.000 C 
ATOM      9  O   UNL     1      -4.490  -0.605   5.923  0.00  0.00    +0.000 OA
ENDROOT
BRANCH   1  11
ATOM     10  C   UNL     1       1.021   0.887   4.602  0.00  0.00    +0.000 C 
ATOM     11  C   UNL     1       0.324  -0.084   5.193  0.00  0.00    +0.000 C 
BRANCH  10  15
ATOM     12  C   UNL     1       0.176   3.333   1.369  0.00  0.00    +0.000 A 
ATOM     13  C   UNL     1       0.189   1.951   1.246  0.00  0.00    +0.000 A 
ATOM     14  C   UNL     1       0.019   1.193   2.397  0.00  0.00    +0.000 A 
ATOM     15  C   UNL     1       0.239   1.710   3.667  0.00  0.00    +0.000 A 
ATOM     16  C   UNL     1       0.236   3.097   3.753  0.00  0.00    +0.000 A 
ATOM     17  C   UNL     1       0.198   3.910   2.633  0.00  0.00    +0.000 A 
ATOM     18  O   UNL     1      -0.280   5.218   2.756  0.00  0.00    +0.000 OA
BRANCH  12  20
ATOM     19  C   UNL     1       0.629   4.563  -0.662  0.00  0.00    +0.000 C 
ATOM     20  O   UNL     1      -0.286   4.095   0.295  0.00  0.00    +0.000 OA
ENDBRANCH  12  20
ENDBRANCH  10  15
ENDBRANCH   1  11
BRANCH   5  21
ATOM     21  O   UNL     1      -1.666   0.334   9.498  0.00  0.00    +0.000 OA
ATOM     22  C   UNL     1      -1.913   1.419  10.365  0.00  0.00    +0.000 C 
ENDBRANCH   5  21
BRANCH   6  23
ATOM     23  O   UNL     1       0.485  -0.080   7.923  0.00  0.00    +0.000 OA
ATOM     24  C   UNL     1       1.258   1.037   8.355  0.00  0.00    +0.000 C 
ENDBRANCH   6  23
TORSDOF 5
ENDMDL
MODEL 5
REMARK VINA RESULT:      -5.7     14.842     16.665
REMARK  Name = 
REMARK  5 active torsions:
REMARK  status: ('A' for Active; 'I' for Inactive)
REMARK    1  A    between atoms: O_2  and  C_3
REMARK    2  A    between atoms: C_6  and  C_7
REMARK    3  A    between atoms: C_8  and  C_9
REMARK    4  A    between atoms: C_13  and  O_14
REMARK    5  A    between atoms: C_16  and  O_17
REMARK                            x       y       z     vdW  Elec       q    Type
REMARK                         _______ _______ _______ _____ _____    ______ ____
ROOT
ATOM      1  C   UNL     1     -23.629   8.997  -3.057  0.00  0.00    +0.000 A 
ATOM      2  C   UNL     1     -23.659   7.609  -3.038  0.00  0.00    +0.000 A 
ATOM      3  C   UNL     1     -23.413   6.876  -1.893  0.00  0.00    +0.000 A 
ATOM      4  C   UNL     1     -23.723   7.506  -0.694  0.00  0.00    +0.000 A 
ATOM      5  C   UNL     1     -23.865   8.889  -0.672  0.00  0.00    +0.000 A 
ATOM      6  C   UNL     1     -23.531   9.609  -1.812  0.00  0.00    +0.000 A 
ATOM      7  O   UNL     1     -23.490   6.558   0.307  0.00  0.00    +0.000 OA
ATOM      8  C   UNL     1     -22.824   5.439  -0.222  0.00  0.00    +0.000 C 
ATOM      9  O   UNL     1     -23.067   5.548  -1.621  0.00  0.00    +0.000 OA
ENDROOT
BRANCH   1  11
ATOM     10  C   UNL     1     -23.845  10.245  -5.041  0.00  0.00    +0.000 C 
ATOM     11  C   UNL     1     -22.990   9.739  -4.152  0.00  0.00    +0.000 C 
BRANCH  10  15
ATOM     12  C   UNL     1     -26.217   8.452  -7.924  0.00  0.00    +0.000 A 
ATOM     13  C   UNL     1     -24.839   8.282  -7.912  0.00  0.00    +0.000 A 
ATOM     14  C   UNL     1     -24.166   8.500  -6.718  0.00  0.00    +0.000 A 
ATOM     15  C   UNL     1     -24.713   9.246  -5.681  0.00  0.00    +0.000 A 
ATOM     16  C   UNL     1     -26.092   9.411  -5.731  0.00  0.00    +0.000 A 
ATOM     17  C   UNL     1     -26.847   9.021  -6.824  0.00  0.00    +0.000 A 
ATOM     18  O   UNL     1     -28.210   8.758  -6.651  0.00  0.00    +0.000 OA
BRANCH  12  20
ATOM     19  C   UNL     1     -26.421   7.299 -10.039  0.00  0.00    +0.000 C 
ATOM     20  O   UNL     1     -26.977   7.686  -8.808  0.00  0.00    +0.000 OA
ENDBRANCH  12  20
ENDBRANCH  10  15
ENDBRANCH   1  11
BRANCH   5  21
ATOM     21  O   UNL     1     -23.835   9.598   0.532  0.00  0.00    +0.000 OA
ATOM     22  C   UNL     1     -24.936   9.659   1.414  0.00  0.00    +0.000 C 
ENDBRANCH   5  21
BRANCH   6  23
ATOM     23  O   UNL     1     -23.101  10.935  -1.695  0.00  0.00    +0.000 OA
ATOM     24  C   UNL     1     -24.139  11.912  -1.679  0.00  0.00    +0.000 C 
ENDBRANCH   6  23
TORSDOF 5
ENDMDL
MODEL 6
REMARK VINA RESULT:      -5.7      2.744      3.796
REMARK  Name = 
REMARK  5 active torsions:
REMARK  status: ('A' for Active; 'I' for Inactive)
REMARK    1  A    between atoms: O_2  and  C_3
REMARK    2  A    between atoms: C_6  and  C_7
REMARK    3  A    between atoms: C_8  and  C_9
REMARK    4  A    between atoms: C_13  and  O_14
REMARK    5  A    between atoms: C_16  and  O_17
REMARK                            x       y       z     vdW  Elec       q    Type
REMARK                         _______ _______ _______ _____ _____    ______ ____
ROOT
ATOM      1  C   UNL     1     -33.480  -4.571  -6.407  0.00  0.00    +0.000 A 
ATOM      2  C   UNL     1     -32.251  -4.733  -7.035  0.00  0.00    +0.000 A 
ATOM      3  C   UNL     1     -31.070  -4.276  -6.485  0.00  0.00    +0.000 A 
ATOM      4  C   UNL     1     -31.037  -4.202  -5.099  0.00  0.00    +0.000 A 
ATOM      5  C   UNL     1     -32.234  -4.193  -4.392  0.00  0.00    +0.000 A 
ATOM      6  C   UNL     1     -33.424  -4.094  -5.102  0.00  0.00    +0.000 A 
ATOM      7  O   UNL     1     -29.735  -3.814  -4.767  0.00  0.00    +0.000 OA
ATOM      8  C   UNL     1     -29.031  -3.422  -5.919  0.00  0.00    +0.000 C 
ATOM      9  O   UNL     1     -29.788  -4.006  -6.975  0.00  0.00    +0.000 OA
ENDROOT
BRANCH   1  11
ATOM     10  C   UNL     1     -35.690  -5.029  -7.076  0.00  0.00    +0.000 C 
ATOM     11  C   UNL     1     -34.678  -4.163  -7.153  0.00  0.00    +0.000 C 
BRANCH  10  15
ATOM     12  C   UNL     1     -36.254  -8.908  -8.411  0.00  0.00    +0.000 A 
ATOM     13  C   UNL     1     -36.228  -7.836  -9.292  0.00  0.00    +0.000 A 
ATOM     14  C   UNL     1     -35.599  -6.670  -8.881  0.00  0.00    +0.000 A 
ATOM     15  C   UNL     1     -35.362  -6.384  -7.542  0.00  0.00    +0.000 A 
ATOM     16  C   UNL     1     -35.410  -7.476  -6.684  0.00  0.00    +0.000 A 
ATOM     17  C   UNL     1     -35.841  -8.726  -7.097  0.00  0.00    +0.000 A 
ATOM     18  O   UNL     1     -35.431  -9.858  -6.385  0.00  0.00    +0.000 OA
BRANCH  12  20
ATOM     19  C   UNL     1     -35.702 -10.444 -10.194  0.00  0.00    +0.000 C 
ATOM     20  O   UNL     1     -36.271 -10.202  -8.933  0.00  0.00    +0.000 OA
ENDBRANCH  12  20
ENDBRANCH  10  15
ENDBRANCH   1  11
BRANCH   5  21
ATOM     21  O   UNL     1     -32.282  -3.784  -3.056  0.00  0.00    +0.000 OA
ATOM     22  C   UNL     1     -31.863  -4.605  -1.987  0.00  0.00    +0.000 C 
ENDBRANCH   5  21
BRANCH   6  23
ATOM     23  O   UNL     1     -34.547  -3.517  -4.499  0.00  0.00    +0.000 OA
ATOM     24  C   UNL     1     -35.350  -4.411  -3.731  0.00  0.00    +0.000 C 
ENDBRANCH   6  23
TORSDOF 5
ENDMDL
MODEL 7
REMARK VINA RESULT:      -5.6     16.250     19.131
REMARK  Name = 
REMARK  5 active torsions:
REMARK  status: ('A' for Active; 'I' for Inactive)
REMARK    1  A    between atoms: O_2  and  C_3
REMARK    2  A    between atoms: C_6  and  C_7
REMARK    3  A    between atoms: C_8  and  C_9
REMARK    4  A    between atoms: C_13  and  O_14
REMARK    5  A    between atoms: C_16  and  O_17
REMARK                            x       y       z     vdW  Elec       q    Type
REMARK                         _______ _______ _______ _____ _____    ______ ____
ROOT
ATOM      1  C   UNL     1     -20.188  -4.371   8.910  0.00  0.00    +0.000 A 
ATOM      2  C   UNL     1     -20.366  -2.995   8.850  0.00  0.00    +0.000 A 
ATOM      3  C   UNL     1     -19.383  -2.138   8.393  0.00  0.00    +0.000 A 
ATOM      4  C   UNL     1     -18.494  -2.675   7.472  0.00  0.00    +0.000 A 
ATOM      5  C   UNL     1     -18.378  -4.057   7.367  0.00  0.00    +0.000 A 
ATOM      6  C   UNL     1     -19.035  -4.850   8.299  0.00  0.00    +0.000 A 
ATOM      7  O   UNL     1     -17.663  -1.620   7.083  0.00  0.00    +0.000 OA
ATOM      8  C   UNL     1     -17.867  -0.502   7.911  0.00  0.00    +0.000 C 
ATOM      9  O   UNL     1     -19.137  -0.765   8.502  0.00  0.00    +0.000 OA
ENDROOT
BRANCH   1  11
ATOM     10  C   UNL     1     -21.698  -5.924   9.831  0.00  0.00    +0.000 C 
ATOM     11  C   UNL     1     -20.634  -5.156  10.069  0.00  0.00    +0.000 C 
BRANCH  10  15
ATOM     12  C   UNL     1     -25.683  -5.023   9.153  0.00  0.00    +0.000 A 
ATOM     13  C   UNL     1     -25.046  -4.650  10.328  0.00  0.00    +0.000 A 
ATOM     14  C   UNL     1     -23.661  -4.558  10.319  0.00  0.00    +0.000 A 
ATOM     15  C   UNL     1     -22.881  -5.190   9.359  0.00  0.00    +0.000 A 
ATOM     16  C   UNL     1     -23.551  -5.565   8.201  0.00  0.00    +0.000 A 
ATOM     17  C   UNL     1     -24.928  -5.484   8.081  0.00  0.00    +0.000 A 
ATOM     18  O   UNL     1     -25.497  -5.402   6.806  0.00  0.00    +0.000 OA
BRANCH  12  20
ATOM     19  C   UNL     1     -27.233  -3.171   9.064  0.00  0.00    +0.000 C 
ATOM     20  O   UNL     1     -26.969  -4.541   8.907  0.00  0.00    +0.000 OA
ENDBRANCH  12  20
ENDBRANCH  10  15
ENDBRANCH   1  11
BRANCH   5  21
ATOM     21  O   UNL     1     -17.284  -4.643   6.724  0.00  0.00    +0.000 OA
ATOM     22  C   UNL     1     -17.304  -5.017   5.363  0.00  0.00    +0.000 C 
ENDBRANCH   5  21
BRANCH   6  23
ATOM     23  O   UNL     1     -18.529  -6.117   8.611  0.00  0.00    +0.000 OA
ATOM     24  C   UNL     1     -19.009  -7.182   7.793  0.00  0.00    +0.000 C 
ENDBRANCH   6  23
TORSDOF 5
ENDMDL
MODEL 8
REMARK VINA RESULT:      -5.4      2.953      4.814
REMARK  Name = 
REMARK  5 active torsions:
REMARK  status: ('A' for Active; 'I' for Inactive)
REMARK    1  A    between atoms: O_2  and  C_3
REMARK    2  A    between atoms: C_6  and  C_7
REMARK    3  A    between atoms: C_8  and  C_9
REMARK    4  A    between atoms: C_13  and  O_14
REMARK    5  A    between atoms: C_16  and  O_17
REMARK                            x       y       z     vdW  Elec       q    Type
REMARK                         _______ _______ _______ _____ _____    ______ ____
ROOT
ATOM      1  C   UNL     1     -33.916  -5.468  -4.462  0.00  0.00    +0.000 A 
ATOM      2  C   UNL     1     -33.524  -6.308  -3.428  0.00  0.00    +0.000 A 
ATOM      3  C   UNL     1     -32.197  -6.523  -3.107  0.00  0.00    +0.000 A 
ATOM      4  C   UNL     1     -31.328  -5.482  -3.407  0.00  0.00    +0.000 A 
ATOM      5  C   UNL     1     -31.720  -4.513  -4.322  0.00  0.00    +0.000 A 
ATOM      6  C   UNL     1     -32.901  -4.706  -5.028  0.00  0.00    +0.000 A 
ATOM      7  O   UNL     1     -30.079  -5.875  -2.915  0.00  0.00    +0.000 OA
ATOM      8  C   UNL     1     -30.106  -7.227  -2.529  0.00  0.00    +0.000 C 
ATOM      9  O   UNL     1     -31.497  -7.494  -2.384  0.00  0.00    +0.000 OA
ENDROOT
BRANCH   1  11
ATOM     10  C   UNL     1     -36.056  -5.045  -5.347  0.00  0.00    +0.000 C 
ATOM     11  C   UNL     1     -34.988  -5.843  -5.394  0.00  0.00    +0.000 C 
BRANCH  10  15
ATOM     12  C   UNL     1     -39.035  -4.790  -2.482  0.00  0.00    +0.000 A 
ATOM     13  C   UNL     1     -38.608  -6.015  -2.974  0.00  0.00    +0.000 A 
ATOM     14  C   UNL     1     -37.348  -6.081  -3.554  0.00  0.00    +0.000 A 
ATOM     15  C   UNL     1     -36.684  -4.954  -4.022  0.00  0.00    +0.000 A 
ATOM     16  C   UNL     1     -37.146  -3.742  -3.522  0.00  0.00    +0.000 A 
ATOM     17  C   UNL     1     -38.297  -3.645  -2.758  0.00  0.00    +0.000 A 
ATOM     18  O   UNL     1     -38.455  -2.551  -1.901  0.00  0.00    +0.000 OA
BRANCH  12  20
ATOM     19  C   UNL     1     -39.797  -5.762  -0.404  0.00  0.00    +0.000 C 
ATOM     20  O   UNL     1     -39.912  -4.775  -1.397  0.00  0.00    +0.000 OA
ENDBRANCH  12  20
ENDBRANCH  10  15
ENDBRANCH   1  11
BRANCH   5  21
ATOM     21  O   UNL     1     -30.787  -3.656  -4.912  0.00  0.00    +0.000 OA
ATOM     22  C   UNL     1     -29.729  -4.116  -5.725  0.00  0.00    +0.000 C 
ENDBRANCH   5  21
BRANCH   6  23
ATOM     23  O   UNL     1     -33.054  -4.133  -6.295  0.00  0.00    +0.000 OA
ATOM     24  C   UNL     1     -33.360  -2.740  -6.300  0.00  0.00    +0.000 C 
ENDBRANCH   6  23
TORSDOF 5
ENDMDL
MODEL 9
REMARK VINA RESULT:      -5.3     13.914     17.559
REMARK  Name = 
REMARK  5 active torsions:
REMARK  status: ('A' for Active; 'I' for Inactive)
REMARK    1  A    between atoms: O_2  and  C_3
REMARK    2  A    between atoms: C_6  and  C_7
REMARK    3  A    between atoms: C_8  and  C_9
REMARK    4  A    between atoms: C_13  and  O_14
REMARK    5  A    between atoms: C_16  and  O_17
REMARK                            x       y       z     vdW  Elec       q    Type
REMARK                         _______ _______ _______ _____ _____    ______ ____
ROOT
ATOM      1  C   UNL     1     -25.949   9.014  -7.313  0.00  0.00    +0.000 A 
ATOM      2  C   UNL     1     -26.181  10.363  -7.076  0.00  0.00    +0.000 A 
ATOM      3  C   UNL     1     -27.196  11.062  -7.699  0.00  0.00    +0.000 A 
ATOM      4  C   UNL     1     -28.304  10.313  -8.074  0.00  0.00    +0.000 A 
ATOM      5  C   UNL     1     -28.184   8.932  -8.179  0.00  0.00    +0.000 A 
ATOM      6  C   UNL     1     -26.922   8.364  -8.064  0.00  0.00    +0.000 A 
ATOM      7  O   UNL     1     -29.228  11.229  -8.586  0.00  0.00    +0.000 OA
ATOM      8  C   UNL     1     -28.631  12.490  -8.751  0.00  0.00    +0.000 C 
ATOM      9  O   UNL     1     -27.479  12.415  -7.916  0.00  0.00    +0.000 OA
ENDROOT
BRANCH   1  11
ATOM     10  C   UNL     1     -24.134   7.790  -6.447  0.00  0.00    +0.000 C 
ATOM     11  C   UNL     1     -24.590   8.485  -7.490  0.00  0.00    +0.000 C 
BRANCH  10  15
ATOM     12  C   UNL     1     -22.708   9.333  -2.878  0.00  0.00    +0.000 A 
ATOM     13  C   UNL     1     -22.496   9.985  -4.085  0.00  0.00    +0.000 A 
ATOM     14  C   UNL     1     -23.349   9.697  -5.141  0.00  0.00    +0.000 A 
ATOM     15  C   UNL     1     -24.116   8.540  -5.183  0.00  0.00    +0.000 A 
ATOM     16  C   UNL     1     -24.297   7.902  -3.961  0.00  0.00    +0.000 A 
ATOM     17  C   UNL     1     -23.617   8.284  -2.817  0.00  0.00    +0.000 A 
ATOM     18  O   UNL     1     -24.157   7.968  -1.566  0.00  0.00    +0.000 OA
BRANCH  12  20
ATOM     19  C   UNL     1     -22.709  11.336  -1.524  0.00  0.00    +0.000 C 
ATOM     20  O   UNL     1     -22.359   9.986  -1.695  0.00  0.00    +0.000 OA
ENDBRANCH  12  20
ENDBRANCH  10  15
ENDBRANCH   1  11
BRANCH   5  21
ATOM     21  O   UNL     1     -29.137   8.175  -8.867  0.00  0.00    +0.000 OA
ATOM     22  C   UNL     1     -30.453   7.986  -8.394  0.00  0.00    +0.000 C 
ENDBRANCH   5  21
BRANCH   6  23
ATOM     23  O   UNL     1     -26.645   7.151  -8.704  0.00  0.00    +0.000 OA
ATOM     24  C   UNL     1     -26.399   7.246 -10.105  0.00  0.00    +0.000 C 
ENDBRANCH   6  23
TORSDOF 5
ENDMDL
MODEL 10
REMARK VINA RESULT:      -5.2     32.037     35.290
REMARK  Name = 
REMARK  5 active torsions:
REMARK  status: ('A' for Active; 'I' for Inactive)
REMARK    1  A    between atoms: O_2  and  C_3
REMARK    2  A    between atoms: C_6  and  C_7
REMARK    3  A    between atoms: C_8  and  C_9
REMARK    4  A    between atoms: C_13  and  O_14
REMARK    5  A    between atoms: C_16  and  O_17
REMARK                            x       y       z     vdW  Elec       q    Type
REMARK                         _______ _______ _______ _____ _____    ______ ____
ROOT
ATOM      1  C   UNL     1     -14.797  18.108 -21.558  0.00  0.00    +0.000 A 
ATOM      2  C   UNL     1     -15.892  18.622 -22.241  0.00  0.00    +0.000 A 
ATOM      3  C   UNL     1     -17.148  18.710 -21.672  0.00  0.00    +0.000 A 
ATOM      4  C   UNL     1     -17.176  18.846 -20.289  0.00  0.00    +0.000 A 
ATOM      5  C   UNL     1     -16.051  18.496 -19.551  0.00  0.00    +0.000 A 
ATOM      6  C   UNL     1     -14.996  17.871 -20.203  0.00  0.00    +0.000 A 
ATOM      7  O   UNL     1     -18.522  19.012 -19.950  0.00  0.00    +0.000 OA
ATOM      8  C   UNL     1     -19.345  18.751 -21.060  0.00  0.00    +0.000 C 
ATOM      9  O   UNL     1     -18.449  18.865 -22.161  0.00  0.00    +0.000 OA
ENDROOT
BRANCH   1  11
ATOM     10  C   UNL     1     -12.596  17.648 -22.255  0.00  0.00    +0.000 C 
ATOM     11  C   UNL     1     -13.847  17.191 -22.203  0.00  0.00    +0.000 C 
BRANCH  10  15
ATOM     12  C   UNL     1     -11.075  20.509 -24.834  0.00  0.00    +0.000 A 
ATOM     13  C   UNL     1     -12.024  19.587 -25.255  0.00  0.00    +0.000 A 
ATOM     14  C   UNL     1     -12.815  18.980 -24.289  0.00  0.00    +0.000 A 
ATOM     15  C   UNL     1     -12.451  18.936 -22.949  0.00  0.00    +0.000 A 
ATOM     16  C   UNL     1     -11.489  19.861 -22.564  0.00  0.00    +0.000 A 
ATOM     17  C   UNL     1     -10.807  20.647 -23.478  0.00  0.00    +0.000 A 
ATOM     18  O   UNL     1     -10.237  21.851 -23.050  0.00  0.00    +0.000 OA
BRANCH  12  20
ATOM     19  C   UNL     1      -9.885  21.299 -26.784  0.00  0.00    +0.000 C 
ATOM     20  O   UNL     1     -10.733  21.554 -25.694  0.00  0.00    +0.000 OA
ENDBRANCH  12  20
ENDBRANCH  10  15
ENDBRANCH   1  11
BRANCH   5  21
ATOM     21  O   UNL     1     -16.130  18.287 -18.171  0.00  0.00    +0.000 OA
ATOM     22  C   UNL     1     -16.219  19.343 -17.239  0.00  0.00    +0.000 C 
ENDBRANCH   5  21
BRANCH   6  23
ATOM     23  O   UNL     1     -14.152  17.012 -19.491  0.00  0.00    +0.000 OA
ATOM     24  C   UNL     1     -13.140  17.656 -18.721  0.00  0.00    +0.000 C 
ENDBRANCH   6  23
TORSDOF 5
ENDMDL
