MODEL 1
REMARK VINA RESULT:      -7.5      0.000      0.000
REMARK  Name = 
REMARK  4 active torsions:
REMARK  status: ('A' for Active; 'I' for Inactive)
REMARK    1  A    between atoms: O_2  and  C_3
REMARK    2  A    between atoms: C_6  and  C_7
REMARK    3  A    between atoms: C_8  and  C_9
REMARK    4  A    between atoms: C_14  and  O_15
REMARK                            x       y       z     vdW  Elec       q    Type
REMARK                         _______ _______ _______ _____ _____    ______ ____
ROOT
ATOM      1  C   UNL     1     -17.610  -2.544   6.868  0.00  0.00    +0.000 A 
ATOM      2  C   UNL     1     -16.576  -1.972   6.142  0.00  0.00    +0.000 A 
ATOM      3  C   UNL     1     -16.335  -0.611   6.243  0.00  0.00    +0.000 A 
ATOM      4  C   UNL     1     -17.199   0.161   7.011  0.00  0.00    +0.000 A 
ATOM      5  C   UNL     1     -18.129  -0.417   7.864  0.00  0.00    +0.000 A 
ATOM      6  C   UNL     1     -18.223  -1.781   7.855  0.00  0.00    +0.000 A 
ATOM      7  O   UNL     1     -16.975   1.518   7.037  0.00  0.00    +0.000 OA
ATOM      8  C   UNL     1     -15.740   2.143   6.801  0.00  0.00    +0.000 C 
ATOM      9  C   UNL     1     -14.637   1.169   6.455  0.00  0.00    +0.000 C 
ATOM     10  O   UNL     1     -15.123  -0.032   5.898  0.00  0.00    +0.000 OA
ENDROOT
BRANCH   1  12
ATOM     11  C   UNL     1     -17.750  -4.495   5.393  0.00  0.00    +0.000 C 
ATOM     12  C   UNL     1     -18.220  -3.783   6.386  0.00  0.00    +0.000 C 
BRANCH  11  16
ATOM     13  C   UNL     1     -17.982  -8.551   4.484  0.00  0.00    +0.000 A 
ATOM     14  C   UNL     1     -18.590  -8.102   5.647  0.00  0.00    +0.000 A 
ATOM     15  C   UNL     1     -18.454  -6.791   6.088  0.00  0.00    +0.000 A 
ATOM     16  C   UNL     1     -17.586  -5.952   5.441  0.00  0.00    +0.000 A 
ATOM     17  C   UNL     1     -16.711  -6.527   4.528  0.00  0.00    +0.000 A 
ATOM     18  C   UNL     1     -16.937  -7.784   3.981  0.00  0.00    +0.000 A 
ATOM     19  O   UNL     1     -16.148  -8.248   2.924  0.00  0.00    +0.000 OA
BRANCH  13  21
ATOM     20  C   UNL     1     -19.769 -10.145   4.057  0.00  0.00    +0.000 C 
ATOM     21  O   UNL     1     -18.633  -9.415   3.598  0.00  0.00    +0.000 OA
ENDBRANCH  13  21
ENDBRANCH  11  16
ENDBRANCH   1  12
BRANCH   6  22
ATOM     22  O   UNL     1     -18.810  -2.519   8.889  0.00  0.00    +0.000 OA
ATOM     23  C   UNL     1     -20.139  -2.133   9.231  0.00  0.00    +0.000 C 
ENDBRANCH   6  22
TORSDOF 4
ENDMDL
MODEL 2
REMARK VINA RESULT:      -7.1      2.636      3.355
REMARK  Name = 
REMARK  4 active torsions:
REMARK  status: ('A' for Active; 'I' for Inactive)
REMARK    1  A    between atoms: O_2  and  C_3
REMARK    2  A    between atoms: C_6  and  C_7
REMARK    3  A    between atoms: C_8  and  C_9
REMARK    4  A    between atoms: C_14  and  O_15
REMARK                            x       y       z     vdW  Elec       q    Type
REMARK                         _______ _______ _______ _____ _____    ______ ____
ROOT
ATOM      1  C   UNL     1     -17.712  -2.268   7.118  0.00  0.00    +0.000 A 
ATOM      2  C   UNL     1     -16.708  -1.825   6.269  0.00  0.00    +0.000 A 
ATOM      3  C   UNL     1     -16.362  -0.482   6.256  0.00  0.00    +0.000 A 
ATOM      4  C   UNL     1     -17.096   0.400   7.039  0.00  0.00    +0.000 A 
ATOM      5  C   UNL     1     -17.985  -0.049   8.005  0.00  0.00    +0.000 A 
ATOM      6  C   UNL     1     -18.178  -1.400   8.098  0.00  0.00    +0.000 A 
ATOM      7  O   UNL     1     -16.774   1.735   6.952  0.00  0.00    +0.000 OA
ATOM      8  C   UNL     1     -15.523   2.247   6.571  0.00  0.00    +0.000 C 
ATOM      9  C   UNL     1     -14.529   1.170   6.200  0.00  0.00    +0.000 C 
ATOM     10  O   UNL     1     -15.147  -0.022   5.771  0.00  0.00    +0.000 OA
ENDROOT
BRANCH   1  12
ATOM     11  C   UNL     1     -17.963  -4.693   6.885  0.00  0.00    +0.000 C 
ATOM     12  C   UNL     1     -18.450  -3.483   6.775  0.00  0.00    +0.000 C 
BRANCH  11  16
ATOM     13  C   UNL     1     -18.908  -8.023   9.198  0.00  0.00    +0.000 A 
ATOM     14  C   UNL     1     -18.901  -8.162   7.818  0.00  0.00    +0.000 A 
ATOM     15  C   UNL     1     -18.720  -7.074   6.972  0.00  0.00    +0.000 A 
ATOM     16  C   UNL     1     -18.688  -5.811   7.501  0.00  0.00    +0.000 A 
ATOM     17  C   UNL     1     -19.078  -5.668   8.826  0.00  0.00    +0.000 A 
ATOM     18  C   UNL     1     -19.113  -6.744   9.705  0.00  0.00    +0.000 A 
ATOM     19  O   UNL     1     -19.317  -6.535  11.072  0.00  0.00    +0.000 OA
BRANCH  13  21
ATOM     20  C   UNL     1     -17.298  -9.824   9.488  0.00  0.00    +0.000 C 
ATOM     21  O   UNL     1     -18.289  -8.957  10.036  0.00  0.00    +0.000 OA
ENDBRANCH  13  21
ENDBRANCH  11  16
ENDBRANCH   1  12
BRANCH   6  22
ATOM     22  O   UNL     1     -18.721  -2.023   9.226  0.00  0.00    +0.000 OA
ATOM     23  C   UNL     1     -20.115  -1.802   9.430  0.00  0.00    +0.000 C 
ENDBRANCH   6  22
TORSDOF 4
ENDMDL
MODEL 3
REMARK VINA RESULT:      -7.0      1.519      2.294
REMARK  Name = 
REMARK  4 active torsions:
REMARK  status: ('A' for Active; 'I' for Inactive)
REMARK    1  A    between atoms: O_2  and  C_3
REMARK    2  A    between atoms: C_6  and  C_7
REMARK    3  A    between atoms: C_8  and  C_9
REMARK    4  A    between atoms: C_14  and  O_15
REMARK                            x       y       z     vdW  Elec       q    Type
REMARK                         _______ _______ _______ _____ _____    ______ ____
ROOT
ATOM      1  C   UNL     1     -17.546  -4.379   6.172  0.00  0.00    +0.000 A 
ATOM      2  C   UNL     1     -16.959  -3.188   5.771  0.00  0.00    +0.000 A 
ATOM      3  C   UNL     1     -17.286  -2.007   6.420  0.00  0.00    +0.000 A 
ATOM      4  C   UNL     1     -18.264  -2.040   7.406  0.00  0.00    +0.000 A 
ATOM      5  C   UNL     1     -18.735  -3.238   7.925  0.00  0.00    +0.000 A 
ATOM      6  C   UNL     1     -18.262  -4.392   7.364  0.00  0.00    +0.000 A 
ATOM      7  O   UNL     1     -18.615  -0.842   7.984  0.00  0.00    +0.000 OA
ATOM      8  C   UNL     1     -17.796   0.296   8.059  0.00  0.00    +0.000 C 
ATOM      9  C   UNL     1     -16.456   0.109   7.383  0.00  0.00    +0.000 C 
ATOM     10  O   UNL     1     -16.484  -0.876   6.375  0.00  0.00    +0.000 OA
ENDROOT
BRANCH   1  12
ATOM     11  C   UNL     1     -16.692  -6.316   4.940  0.00  0.00    +0.000 C 
ATOM     12  C   UNL     1     -17.659  -5.477   5.214  0.00  0.00    +0.000 C 
BRANCH  11  16
ATOM     13  C   UNL     1     -18.223 -10.098   4.115  0.00  0.00    +0.000 A 
ATOM     14  C   UNL     1     -18.167  -9.685   5.439  0.00  0.00    +0.000 A 
ATOM     15  C   UNL     1     -17.557  -8.494   5.811  0.00  0.00    +0.000 A 
ATOM     16  C   UNL     1     -16.869  -7.771   4.873  0.00  0.00    +0.000 A 
ATOM     17  C   UNL     1     -16.616  -8.390   3.656  0.00  0.00    +0.000 A 
ATOM     18  C   UNL     1     -17.337  -9.498   3.228  0.00  0.00    +0.000 A 
ATOM     19  O   UNL     1     -17.193  -9.974   1.921  0.00  0.00    +0.000 OA
BRANCH  13  21
ATOM     20  C   UNL     1     -20.547 -10.771   4.376  0.00  0.00    +0.000 C 
ATOM     21  O   UNL     1     -19.367 -10.697   3.578  0.00  0.00    +0.000 OA
ENDBRANCH  13  21
ENDBRANCH  11  16
ENDBRANCH   1  12
BRANCH   6  22
ATOM     22  O   UNL     1     -18.332  -5.639   7.994  0.00  0.00    +0.000 OA
ATOM     23  C   UNL     1     -19.572  -5.925   8.637  0.00  0.00    +0.000 C 
ENDBRANCH   6  22
TORSDOF 4
ENDMDL
MODEL 4
REMARK VINA RESULT:      -6.6      3.102      4.728
REMARK  Name = 
REMARK  4 active torsions:
REMARK  status: ('A' for Active; 'I' for Inactive)
REMARK    1  A    between atoms: O_2  and  C_3
REMARK    2  A    between atoms: C_6  and  C_7
REMARK    3  A    between atoms: C_8  and  C_9
REMARK    4  A    between atoms: C_14  and  O_15
REMARK                            x       y       z     vdW  Elec       q    Type
REMARK                         _______ _______ _______ _____ _____    ______ ____
ROOT
ATOM      1  C   UNL     1     -18.258  -1.168   7.959  0.00  0.00    +0.000 A 
ATOM      2  C   UNL     1     -17.718   0.108   8.006  0.00  0.00    +0.000 A 
ATOM      3  C   UNL     1     -16.582   0.402   7.267  0.00  0.00    +0.000 A 
ATOM      4  C   UNL     1     -15.966  -0.623   6.562  0.00  0.00    +0.000 A 
ATOM      5  C   UNL     1     -16.582  -1.854   6.376  0.00  0.00    +0.000 A 
ATOM      6  C   UNL     1     -17.788  -2.048   6.992  0.00  0.00    +0.000 A 
ATOM      7  O   UNL     1     -14.803  -0.317   5.894  0.00  0.00    +0.000 OA
ATOM      8  C   UNL     1     -14.439   0.961   5.438  0.00  0.00    +0.000 C 
ATOM      9  C   UNL     1     -15.447   2.029   5.797  0.00  0.00    +0.000 C 
ATOM     10  O   UNL     1     -16.216   1.697   6.932  0.00  0.00    +0.000 OA
ENDROOT
BRANCH   1  12
ATOM     11  C   UNL     1     -20.336  -1.922   9.014  0.00  0.00    +0.000 C 
ATOM     12  C   UNL     1     -19.059  -1.645   9.086  0.00  0.00    +0.000 C 
BRANCH  11  16
ATOM     13  C   UNL     1     -21.528  -5.877   9.534  0.00  0.00    +0.000 A 
ATOM     14  C   UNL     1     -22.506  -4.918   9.317  0.00  0.00    +0.000 A 
ATOM     15  C   UNL     1     -22.206  -3.563   9.259  0.00  0.00    +0.000 A 
ATOM     16  C   UNL     1     -20.939  -3.143   9.562  0.00  0.00    +0.000 A 
ATOM     17  C   UNL     1     -20.085  -4.071  10.144  0.00  0.00    +0.000 A 
ATOM     18  C   UNL     1     -20.320  -5.439  10.068  0.00  0.00    +0.000 A 
ATOM     19  O   UNL     1     -19.347  -6.349  10.489  0.00  0.00    +0.000 OA
BRANCH  13  21
ATOM     20  C   UNL     1     -22.295  -8.180   9.367  0.00  0.00    +0.000 C 
ATOM     21  O   UNL     1     -21.525  -7.096   8.849  0.00  0.00    +0.000 OA
ENDBRANCH  13  21
ENDBRANCH  11  16
ENDBRANCH   1  12
BRANCH   6  22
ATOM     22  O   UNL     1     -18.693  -3.044   6.612  0.00  0.00    +0.000 OA
ATOM     23  C   UNL     1     -18.216  -4.381   6.746  0.00  0.00    +0.000 C 
ENDBRANCH   6  22
TORSDOF 4
ENDMDL
MODEL 5
REMARK VINA RESULT:      -6.6     17.225     19.252
REMARK  Name = 
REMARK  4 active torsions:
REMARK  status: ('A' for Active; 'I' for Inactive)
REMARK    1  A    between atoms: O_2  and  C_3
REMARK    2  A    between atoms: C_6  and  C_7
REMARK    3  A    between atoms: C_8  and  C_9
REMARK    4  A    between atoms: C_14  and  O_15
REMARK                            x       y       z     vdW  Elec       q    Type
REMARK                         _______ _______ _______ _____ _____    ______ ____
ROOT
ATOM      1  C   UNL     1     -23.845   9.053  -4.720  0.00  0.00    +0.000 A 
ATOM      2  C   UNL     1     -23.945   7.919  -3.928  0.00  0.00    +0.000 A 
ATOM      3  C   UNL     1     -23.345   7.898  -2.678  0.00  0.00    +0.000 A 
ATOM      4  C   UNL     1     -22.583   8.993  -2.290  0.00  0.00    +0.000 A 
ATOM      5  C   UNL     1     -22.611  10.188  -2.996  0.00  0.00    +0.000 A 
ATOM      6  C   UNL     1     -23.351  10.218  -4.145  0.00  0.00    +0.000 A 
ATOM      7  O   UNL     1     -21.944   8.914  -1.074  0.00  0.00    +0.000 OA
ATOM      8  C   UNL     1     -22.345   8.112   0.006  0.00  0.00    +0.000 C 
ATOM      9  C   UNL     1     -23.560   7.267  -0.302  0.00  0.00    +0.000 C 
ATOM     10  O   UNL     1     -23.714   7.010  -1.679  0.00  0.00    +0.000 OA
ENDROOT
BRANCH   1  12
ATOM     11  C   UNL     1     -24.763   8.073  -6.769  0.00  0.00    +0.000 C 
ATOM     12  C   UNL     1     -23.964   8.921  -6.172  0.00  0.00    +0.000 C 
BRANCH  11  16
ATOM     13  C   UNL     1     -27.687   7.925  -9.728  0.00  0.00    +0.000 A 
ATOM     14  C   UNL     1     -26.359   8.008 -10.120  0.00  0.00    +0.000 A 
ATOM     15  C   UNL     1     -25.333   8.187  -9.201  0.00  0.00    +0.000 A 
ATOM     16  C   UNL     1     -25.642   8.430  -7.889  0.00  0.00    +0.000 A 
ATOM     17  C   UNL     1     -26.967   8.723  -7.594  0.00  0.00    +0.000 A 
ATOM     18  C   UNL     1     -28.004   8.403  -8.461  0.00  0.00    +0.000 A 
ATOM     19  O   UNL     1     -29.334   8.529  -8.051  0.00  0.00    +0.000 OA
BRANCH  13  21
ATOM     20  C   UNL     1     -28.586   6.883 -11.735  0.00  0.00    +0.000 C 
ATOM     21  O   UNL     1     -28.574   7.016 -10.314  0.00  0.00    +0.000 OA
ENDBRANCH  13  21
ENDBRANCH  11  16
ENDBRANCH   1  12
BRANCH   6  22
ATOM     22  O   UNL     1     -23.786  11.402  -4.749  0.00  0.00    +0.000 OA
ATOM     23  C   UNL     1     -23.135  12.587  -4.298  0.00  0.00    +0.000 C 
ENDBRANCH   6  22
TORSDOF 4
ENDMDL
MODEL 6
REMARK VINA RESULT:      -6.4     20.704     22.653
REMARK  Name = 
REMARK  4 active torsions:
REMARK  status: ('A' for Active; 'I' for Inactive)
REMARK    1  A    between atoms: O_2  and  C_3
REMARK    2  A    between atoms: C_6  and  C_7
REMARK    3  A    between atoms: C_8  and  C_9
REMARK    4  A    between atoms: C_14  and  O_15
REMARK                            x       y       z     vdW  Elec       q    Type
REMARK                         _______ _______ _______ _____ _____    ______ ____
ROOT
ATOM      1  C   UNL     1     -28.165   7.412  -9.895  0.00  0.00    +0.000 A 
ATOM      2  C   UNL     1     -28.996   8.448  -9.494  0.00  0.00    +0.000 A 
ATOM      3  C   UNL     1     -29.997   8.895 -10.343  0.00  0.00    +0.000 A 
ATOM      4  C   UNL     1     -30.083   8.344 -11.616  0.00  0.00    +0.000 A 
ATOM      5  C   UNL     1     -29.370   7.205 -11.966  0.00  0.00    +0.000 A 
ATOM      6  C   UNL     1     -28.508   6.695 -11.035  0.00  0.00    +0.000 A 
ATOM      7  O   UNL     1     -31.041   8.855 -12.459  0.00  0.00    +0.000 OA
ATOM      8  C   UNL     1     -32.225   9.492 -12.054  0.00  0.00    +0.000 C 
ATOM      9  C   UNL     1     -32.347   9.620 -10.553  0.00  0.00    +0.000 C 
ATOM     10  O   UNL     1     -31.098   9.611  -9.899  0.00  0.00    +0.000 OA
ENDROOT
BRANCH   1  12
ATOM     11  C   UNL     1     -26.205   8.287  -8.716  0.00  0.00    +0.000 C 
ATOM     12  C   UNL     1     -26.830   7.302  -9.310  0.00  0.00    +0.000 C 
BRANCH  11  16
ATOM     13  C   UNL     1     -24.448   9.167  -5.046  0.00  0.00    +0.000 A 
ATOM     14  C   UNL     1     -23.639   8.682  -6.062  0.00  0.00    +0.000 A 
ATOM     15  C   UNL     1     -24.163   8.247  -7.273  0.00  0.00    +0.000 A 
ATOM     16  C   UNL     1     -25.522   8.159  -7.423  0.00  0.00    +0.000 A 
ATOM     17  C   UNL     1     -26.295   8.281  -6.276  0.00  0.00    +0.000 A 
ATOM     18  C   UNL     1     -25.802   8.856  -5.111  0.00  0.00    +0.000 A 
ATOM     19  O   UNL     1     -26.660   9.143  -4.045  0.00  0.00    +0.000 OA
BRANCH  13  21
ATOM     20  C   UNL     1     -23.208  10.074  -3.159  0.00  0.00    +0.000 C 
ATOM     21  O   UNL     1     -24.078  10.273  -4.272  0.00  0.00    +0.000 OA
ENDBRANCH  13  21
ENDBRANCH  11  16
ENDBRANCH   1  12
BRANCH   6  22
ATOM     22  O   UNL     1     -28.020   5.385 -11.075  0.00  0.00    +0.000 OA
ATOM     23  C   UNL     1     -28.951   4.379 -10.683  0.00  0.00    +0.000 C 
ENDBRANCH   6  22
TORSDOF 4
ENDMDL
MODEL 7
REMARK VINA RESULT:      -6.3     16.376     21.982
REMARK  Name = 
REMARK  4 active torsions:
REMARK  status: ('A' for Active; 'I' for Inactive)
REMARK    1  A    between atoms: O_2  and  C_3
REMARK    2  A    between atoms: C_6  and  C_7
REMARK    3  A    between atoms: C_8  and  C_9
REMARK    4  A    between atoms: C_14  and  O_15
REMARK                            x       y       z     vdW  Elec       q    Type
REMARK                         _______ _______ _______ _____ _____    ______ ____
ROOT
ATOM      1  C   UNL     1     -15.135  15.539   0.878  0.00  0.00    +0.000 A 
ATOM      2  C   UNL     1     -15.806  14.327   0.807  0.00  0.00    +0.000 A 
ATOM      3  C   UNL     1     -15.209  13.181   1.310  0.00  0.00    +0.000 A 
ATOM      4  C   UNL     1     -13.911  13.267   1.797  0.00  0.00    +0.000 A 
ATOM      5  C   UNL     1     -13.297  14.492   2.021  0.00  0.00    +0.000 A 
ATOM      6  C   UNL     1     -13.989  15.615   1.661  0.00  0.00    +0.000 A 
ATOM      7  O   UNL     1     -13.321  12.101   2.225  0.00  0.00    +0.000 OA
ATOM      8  C   UNL     1     -14.006  10.963   2.682  0.00  0.00    +0.000 C 
ATOM      9  C   UNL     1     -15.509  11.109   2.618  0.00  0.00    +0.000 C 
ATOM     10  O   UNL     1     -15.927  12.045   1.650  0.00  0.00    +0.000 OA
ENDROOT
BRANCH   1  12
ATOM     11  C   UNL     1     -14.804  16.792  -1.201  0.00  0.00    +0.000 C 
ATOM     12  C   UNL     1     -15.459  16.591  -0.086  0.00  0.00    +0.000 C 
BRANCH  11  16
ATOM     13  C   UNL     1     -15.913  18.410  -4.873  0.00  0.00    +0.000 A 
ATOM     14  C   UNL     1     -16.868  18.339  -3.871  0.00  0.00    +0.000 A 
ATOM     15  C   UNL     1     -16.618  17.701  -2.662  0.00  0.00    +0.000 A 
ATOM     16  C   UNL     1     -15.452  17.001  -2.502  0.00  0.00    +0.000 A 
ATOM     17  C   UNL     1     -14.691  16.767  -3.640  0.00  0.00    +0.000 A 
ATOM     18  C   UNL     1     -14.851  17.514  -4.800  0.00  0.00    +0.000 A 
ATOM     19  O   UNL     1     -13.942  17.388  -5.855  0.00  0.00    +0.000 OA
BRANCH  13  21
ATOM     20  C   UNL     1     -15.366  20.779  -4.969  0.00  0.00    +0.000 C 
ATOM     21  O   UNL     1     -15.727  19.569  -5.634  0.00  0.00    +0.000 OA
ENDBRANCH  13  21
ENDBRANCH  11  16
ENDBRANCH   1  12
BRANCH   6  22
ATOM     22  O   UNL     1     -13.695  16.891   2.152  0.00  0.00    +0.000 OA
ATOM     23  C   UNL     1     -12.346  17.315   1.970  0.00  0.00    +0.000 C 
ENDBRANCH   6  22
TORSDOF 4
ENDMDL
MODEL 8
REMARK VINA RESULT:      -6.2     20.304     22.042
REMARK  Name = 
REMARK  4 active torsions:
REMARK  status: ('A' for Active; 'I' for Inactive)
REMARK    1  A    between atoms: O_2  and  C_3
REMARK    2  A    between atoms: C_6  and  C_7
REMARK    3  A    between atoms: C_8  and  C_9
REMARK    4  A    between atoms: C_14  and  O_15
REMARK                            x       y       z     vdW  Elec       q    Type
REMARK                         _______ _______ _______ _____ _____    ______ ____
ROOT
ATOM      1  C   UNL     1     -36.337  -2.616  -6.639  0.00  0.00    +0.000 A 
ATOM      2  C   UNL     1     -36.568  -1.384  -6.044  0.00  0.00    +0.000 A 
ATOM      3  C   UNL     1     -37.473  -0.503  -6.616  0.00  0.00    +0.000 A 
ATOM      4  C   UNL     1     -38.063  -0.850  -7.826  0.00  0.00    +0.000 A 
ATOM      5  C   UNL     1     -37.966  -2.135  -8.342  0.00  0.00    +0.000 A 
ATOM      6  C   UNL     1     -37.191  -3.028  -7.656  0.00  0.00    +0.000 A 
ATOM      7  O   UNL     1     -38.904   0.074  -8.403  0.00  0.00    +0.000 OA
ATOM      8  C   UNL     1     -39.606   1.076  -7.715  0.00  0.00    +0.000 C 
ATOM      9  C   UNL     1     -39.317   1.092  -6.231  0.00  0.00    +0.000 C 
ATOM     10  O   UNL     1     -38.061   0.536  -5.912  0.00  0.00    +0.000 OA
ENDROOT
BRANCH   1  12
ATOM     11  C   UNL     1     -33.974  -2.688  -5.999  0.00  0.00    +0.000 C 
ATOM     12  C   UNL     1     -35.061  -3.291  -6.407  0.00  0.00    +0.000 C 
BRANCH  11  16
ATOM     13  C   UNL     1     -31.522  -5.126  -3.682  0.00  0.00    +0.000 A 
ATOM     14  C   UNL     1     -32.768  -4.780  -3.180  0.00  0.00    +0.000 A 
ATOM     15  C   UNL     1     -33.594  -3.872  -3.831  0.00  0.00    +0.000 A 
ATOM     16  C   UNL     1     -33.118  -3.191  -4.919  0.00  0.00    +0.000 A 
ATOM     17  C   UNL     1     -31.754  -3.269  -5.167  0.00  0.00    +0.000 A 
ATOM     18  C   UNL     1     -30.961  -4.274  -4.626  0.00  0.00    +0.000 A 
ATOM     19  O   UNL     1     -29.639  -4.439  -5.051  0.00  0.00    +0.000 OA
BRANCH  13  21
ATOM     20  C   UNL     1     -30.421  -6.912  -2.449  0.00  0.00    +0.000 C 
ATOM     21  O   UNL     1     -31.050  -6.442  -3.640  0.00  0.00    +0.000 OA
ENDBRANCH  13  21
ENDBRANCH  11  16
ENDBRANCH   1  12
BRANCH   6  22
ATOM     22  O   UNL     1     -37.290  -4.414  -7.814  0.00  0.00    +0.000 OA
ATOM     23  C   UNL     1     -37.951  -4.842  -9.003  0.00  0.00    +0.000 C 
ENDBRANCH   6  22
TORSDOF 4
ENDMDL
MODEL 9
REMARK VINA RESULT:      -6.2     18.788     23.571
REMARK  Name = 
REMARK  4 active torsions:
REMARK  status: ('A' for Active; 'I' for Inactive)
REMARK    1  A    between atoms: O_2  and  C_3
REMARK    2  A    between atoms: C_6  and  C_7
REMARK    3  A    between atoms: C_8  and  C_9
REMARK    4  A    between atoms: C_14  and  O_15
REMARK                            x       y       z     vdW  Elec       q    Type
REMARK                         _______ _______ _______ _____ _____    ______ ____
ROOT
ATOM      1  C   UNL     1     -16.656  17.836  18.272  0.00  0.00    +0.000 A 
ATOM      2  C   UNL     1     -15.906  17.078  19.158  0.00  0.00    +0.000 A 
ATOM      3  C   UNL     1     -14.560  17.361  19.337  0.00  0.00    +0.000 A 
ATOM      4  C   UNL     1     -13.980  18.351  18.553  0.00  0.00    +0.000 A 
ATOM      5  C   UNL     1     -14.749  19.218  17.789  0.00  0.00    +0.000 A 
ATOM      6  C   UNL     1     -16.099  19.005  17.767  0.00  0.00    +0.000 A 
ATOM      7  O   UNL     1     -12.629  18.562  18.705  0.00  0.00    +0.000 OA
ATOM      8  C   UNL     1     -11.884  18.266  19.857  0.00  0.00    +0.000 C 
ATOM      9  C   UNL     1     -12.709  17.623  20.949  0.00  0.00    +0.000 C 
ATOM     10  O   UNL     1     -13.846  16.953  20.454  0.00  0.00    +0.000 OA
ENDROOT
BRANCH   1  12
ATOM     11  C   UNL     1     -17.839  16.497  16.595  0.00  0.00    +0.000 C 
ATOM     12  C   UNL     1     -17.851  17.249  17.667  0.00  0.00    +0.000 C 
BRANCH  11  16
ATOM     13  C   UNL     1     -18.938  12.500  16.977  0.00  0.00    +0.000 A 
ATOM     14  C   UNL     1     -18.602  12.972  15.717  0.00  0.00    +0.000 A 
ATOM     15  C   UNL     1     -18.346  14.317  15.481  0.00  0.00    +0.000 A 
ATOM     16  C   UNL     1     -18.565  15.227  16.481  0.00  0.00    +0.000 A 
ATOM     17  C   UNL     1     -19.260  14.785  17.599  0.00  0.00    +0.000 A 
ATOM     18  C   UNL     1     -19.384  13.436  17.905  0.00  0.00    +0.000 A 
ATOM     19  O   UNL     1     -19.916  13.034  19.134  0.00  0.00    +0.000 OA
BRANCH  13  21
ATOM     20  C   UNL     1     -17.274  10.729  16.862  0.00  0.00    +0.000 C 
ATOM     21  O   UNL     1     -18.434  11.292  17.471  0.00  0.00    +0.000 OA
ENDBRANCH  13  21
ENDBRANCH  11  16
ENDBRANCH   1  12
BRANCH   6  22
ATOM     22  O   UNL     1     -17.025  19.977  17.377  0.00  0.00    +0.000 OA
ATOM     23  C   UNL     1     -16.462  21.156  16.806  0.00  0.00    +0.000 C 
ENDBRANCH   6  22
TORSDOF 4
ENDMDL
MODEL 10
REMARK VINA RESULT:      -6.1     19.468     21.486
REMARK  Name = 
REMARK  4 active torsions:
REMARK  status: ('A' for Active; 'I' for Inactive)
REMARK    1  A    between atoms: O_2  and  C_3
REMARK    2  A    between atoms: C_6  and  C_7
REMARK    3  A    between atoms: C_8  and  C_9
REMARK    4  A    between atoms: C_14  and  O_15
REMARK                            x       y       z     vdW  Elec       q    Type
REMARK                         _______ _______ _______ _____ _____    ______ ____
ROOT
ATOM      1  C   UNL     1     -34.101  -4.072  -4.255  0.00  0.00    +0.000 A 
ATOM      2  C   UNL     1     -33.076  -3.424  -4.928  0.00  0.00    +0.000 A 
ATOM      3  C   UNL     1     -31.757  -3.733  -4.633  0.00  0.00    +0.000 A 
ATOM      4  C   UNL     1     -31.499  -4.629  -3.604  0.00  0.00    +0.000 A 
ATOM      5  C   UNL     1     -32.507  -5.400  -3.040  0.00  0.00    +0.000 A 
ATOM      6  C   UNL     1     -33.783  -5.179  -3.477  0.00  0.00    +0.000 A 
ATOM      7  O   UNL     1     -30.180  -4.863  -3.289  0.00  0.00    +0.000 OA
ATOM      8  C   UNL     1     -29.095  -4.704  -4.165  0.00  0.00    +0.000 C 
ATOM      9  C   UNL     1     -29.501  -4.186  -5.526  0.00  0.00    +0.000 C 
ATOM     10  O   UNL     1     -30.708  -3.458  -5.497  0.00  0.00    +0.000 OA
ENDROOT
BRANCH   1  12
ATOM     11  C   UNL     1     -35.682  -2.241  -4.640  0.00  0.00    +0.000 C 
ATOM     12  C   UNL     1     -35.402  -3.414  -4.133  0.00  0.00    +0.000 C 
BRANCH  11  16
ATOM     13  C   UNL     1     -38.345  -0.678  -7.432  0.00  0.00    +0.000 A 
ATOM     14  C   UNL     1     -38.534  -0.362  -6.094  0.00  0.00    +0.000 A 
ATOM     15  C   UNL     1     -37.769  -0.940  -5.089  0.00  0.00    +0.000 A 
ATOM     16  C   UNL     1     -36.902  -1.952  -5.403  0.00  0.00    +0.000 A 
ATOM     17  C   UNL     1     -37.009  -2.507  -6.672  0.00  0.00    +0.000 A 
ATOM     18  C   UNL     1     -37.652  -1.850  -7.713  0.00  0.00    +0.000 A 
ATOM     19  O   UNL     1     -37.571  -2.343  -9.019  0.00  0.00    +0.000 OA
BRANCH  13  21
ATOM     20  C   UNL     1     -38.486   1.670  -8.057  0.00  0.00    +0.000 C 
ATOM     21  O   UNL     1     -38.398   0.297  -8.434  0.00  0.00    +0.000 OA
ENDBRANCH  13  21
ENDBRANCH  11  16
ENDBRANCH   1  12
BRANCH   6  22
ATOM     22  O   UNL     1     -34.825  -6.096  -3.305  0.00  0.00    +0.000 OA
ATOM     23  C   UNL     1     -34.427  -7.385  -2.843  0.00  0.00    +0.000 C 
ENDBRANCH   6  22
TORSDOF 4
ENDMDL
