MODEL 1
REMARK VINA RESULT:      -6.2      0.000      0.000
REMARK  Name = 
REMARK  7 active torsions:
REMARK  status: ('A' for Active; 'I' for Inactive)
REMARK    1  A    between atoms: O_2  and  C_3
REMARK    2  A    between atoms: C_6  and  C_7
REMARK    3  A    between atoms: C_8  and  C_9
REMARK    4  A    between atoms: C_11  and  O_12
REMARK    5  A    between atoms: C_14  and  O_15
REMARK    6  A    between atoms: C_17  and  O_18
REMARK    7  A    between atoms: C_20  and  O_21
REMARK                            x       y       z     vdW  Elec       q    Type
REMARK                         _______ _______ _______ _____ _____    ______ ____
ROOT
ATOM      1  C   UNL     1     -33.456  -3.201  -4.886  0.00  0.00    +0.000 A 
ATOM      2  C   UNL     1     -33.909  -3.929  -3.793  0.00  0.00    +0.000 A 
ATOM      3  C   UNL     1     -33.356  -5.117  -3.392  0.00  0.00    +0.000 A 
ATOM      4  C   UNL     1     -32.076  -5.402  -3.852  0.00  0.00    +0.000 A 
ATOM      5  C   UNL     1     -31.549  -4.640  -4.888  0.00  0.00    +0.000 A 
ATOM      6  C   UNL     1     -32.249  -3.588  -5.457  0.00  0.00    +0.000 A 
ENDROOT
BRANCH   1   8
ATOM      7  C   UNL     1     -35.672  -2.252  -5.320  0.00  0.00    +0.000 C 
ATOM      8  C   UNL     1     -34.380  -2.285  -5.565  0.00  0.00    +0.000 C 
BRANCH   7  12
ATOM      9  C   UNL     1     -38.160  -1.848  -8.704  0.00  0.00    +0.000 A 
ATOM     10  C   UNL     1     -37.518  -3.055  -8.471  0.00  0.00    +0.000 A 
ATOM     11  C   UNL     1     -36.789  -3.184  -7.296  0.00  0.00    +0.000 A 
ATOM     12  C   UNL     1     -36.690  -2.149  -6.374  0.00  0.00    +0.000 A 
ATOM     13  C   UNL     1     -37.176  -0.914  -6.785  0.00  0.00    +0.000 A 
ATOM     14  C   UNL     1     -37.663  -0.719  -8.063  0.00  0.00    +0.000 A 
ATOM     15  O   UNL     1     -37.634   0.526  -8.700  0.00  0.00    +0.000 OA
BRANCH   9  17
ATOM     16  C   UNL     1     -40.480  -1.655  -9.335  0.00  0.00    +0.000 C 
ATOM     17  O   UNL     1     -39.116  -1.672  -9.688  0.00  0.00    +0.000 OA
ENDBRANCH   9  17
ENDBRANCH   7  12
ENDBRANCH   1   8
BRANCH   3  18
ATOM     18  O   UNL     1     -34.103  -6.173  -2.861  0.00  0.00    +0.000 OA
ATOM     19  C   UNL     1     -35.209  -6.720  -3.538  0.00  0.00    +0.000 C 
ENDBRANCH   3  18
BRANCH   4  20
ATOM     20  O   UNL     1     -31.549  -6.665  -3.568  0.00  0.00    +0.000 OA
ATOM     21  C   UNL     1     -30.684  -6.861  -2.458  0.00  0.00    +0.000 C 
ENDBRANCH   4  20
BRANCH   5  22
ATOM     22  O   UNL     1     -30.304  -4.997  -5.369  0.00  0.00    +0.000 OA
ATOM     23  C   UNL     1     -29.118  -4.283  -5.133  0.00  0.00    +0.000 C 
ENDBRANCH   5  22
BRANCH   6  24
ATOM     24  O   UNL     1     -32.059  -3.329  -6.817  0.00  0.00    +0.000 OA
ATOM     25  C   UNL     1     -32.502  -4.273  -7.789  0.00  0.00    +0.000 C 
ENDBRANCH   6  24
TORSDOF 7
ENDMDL
MODEL 2
REMARK VINA RESULT:      -6.0      1.615      2.168
REMARK  Name = 
REMARK  7 active torsions:
REMARK  status: ('A' for Active; 'I' for Inactive)
REMARK    1  A    between atoms: O_2  and  C_3
REMARK    2  A    between atoms: C_6  and  C_7
REMARK    3  A    between atoms: C_8  and  C_9
REMARK    4  A    between atoms: C_11  and  O_12
REMARK    5  A    between atoms: C_14  and  O_15
REMARK    6  A    between atoms: C_17  and  O_18
REMARK    7  A    between atoms: C_20  and  O_21
REMARK                            x       y       z     vdW  Elec       q    Type
REMARK                         _______ _______ _______ _____ _____    ______ ____
ROOT
ATOM      1  C   UNL     1     -32.573  -3.284  -4.420  0.00  0.00    +0.000 A 
ATOM      2  C   UNL     1     -32.818  -3.907  -3.204  0.00  0.00    +0.000 A 
ATOM      3  C   UNL     1     -32.035  -4.911  -2.696  0.00  0.00    +0.000 A 
ATOM      4  C   UNL     1     -30.757  -5.040  -3.225  0.00  0.00    +0.000 A 
ATOM      5  C   UNL     1     -30.443  -4.364  -4.397  0.00  0.00    +0.000 A 
ATOM      6  C   UNL     1     -31.355  -3.542  -5.038  0.00  0.00    +0.000 A 
ENDROOT
BRANCH   1   8
ATOM      7  C   UNL     1     -34.884  -3.189  -5.228  0.00  0.00    +0.000 C 
ATOM      8  C   UNL     1     -33.688  -2.649  -5.133  0.00  0.00    +0.000 C 
BRANCH   7  12
ATOM      9  C   UNL     1     -37.570  -3.404  -8.475  0.00  0.00    +0.000 A 
ATOM     10  C   UNL     1     -37.578  -2.284  -7.658  0.00  0.00    +0.000 A 
ATOM     11  C   UNL     1     -36.613  -2.202  -6.662  0.00  0.00    +0.000 A 
ATOM     12  C   UNL     1     -35.666  -3.201  -6.471  0.00  0.00    +0.000 A 
ATOM     13  C   UNL     1     -35.865  -4.378  -7.182  0.00  0.00    +0.000 A 
ATOM     14  C   UNL     1     -36.980  -4.561  -7.978  0.00  0.00    +0.000 A 
ATOM     15  O   UNL     1     -37.515  -5.824  -8.248  0.00  0.00    +0.000 OA
BRANCH   9  17
ATOM     16  C   UNL     1     -38.189  -2.468 -10.609  0.00  0.00    +0.000 C 
ATOM     17  O   UNL     1     -38.294  -3.494  -9.650  0.00  0.00    +0.000 OA
ENDBRANCH   9  17
ENDBRANCH   7  12
ENDBRANCH   1   8
BRANCH   3  18
ATOM     18  O   UNL     1     -32.545  -5.987  -1.962  0.00  0.00    +0.000 OA
ATOM     19  C   UNL     1     -33.577  -6.805  -2.456  0.00  0.00    +0.000 C 
ENDBRANCH   3  18
BRANCH   4  20
ATOM     20  O   UNL     1     -29.994  -6.140  -2.820  0.00  0.00    +0.000 OA
ATOM     21  C   UNL     1     -30.059  -7.371  -3.526  0.00  0.00    +0.000 C 
ENDBRANCH   4  20
BRANCH   5  22
ATOM     22  O   UNL     1     -29.187  -4.572  -4.933  0.00  0.00    +0.000 OA
ATOM     23  C   UNL     1     -28.063  -3.767  -4.685  0.00  0.00    +0.000 C 
ENDBRANCH   5  22
BRANCH   6  24
ATOM     24  O   UNL     1     -31.302  -3.460  -6.433  0.00  0.00    +0.000 OA
ATOM     25  C   UNL     1     -31.906  -4.477  -7.229  0.00  0.00    +0.000 C 
ENDBRANCH   6  24
TORSDOF 7
ENDMDL
MODEL 3
REMARK VINA RESULT:      -5.6      3.501      4.093
REMARK  Name = 
REMARK  7 active torsions:
REMARK  status: ('A' for Active; 'I' for Inactive)
REMARK    1  A    between atoms: O_2  and  C_3
REMARK    2  A    between atoms: C_6  and  C_7
REMARK    3  A    between atoms: C_8  and  C_9
REMARK    4  A    between atoms: C_11  and  O_12
REMARK    5  A    between atoms: C_14  and  O_15
REMARK    6  A    between atoms: C_17  and  O_18
REMARK    7  A    between atoms: C_20  and  O_21
REMARK                            x       y       z     vdW  Elec       q    Type
REMARK                         _______ _______ _______ _____ _____    ______ ____
ROOT
ATOM      1  C   UNL     1     -33.228  -4.020  -4.488  0.00  0.00    +0.000 A 
ATOM      2  C   UNL     1     -32.916  -4.121  -3.139  0.00  0.00    +0.000 A 
ATOM      3  C   UNL     1     -31.795  -4.753  -2.666  0.00  0.00    +0.000 A 
ATOM      4  C   UNL     1     -30.760  -4.959  -3.569  0.00  0.00    +0.000 A 
ATOM      5  C   UNL     1     -31.007  -4.785  -4.925  0.00  0.00    +0.000 A 
ATOM      6  C   UNL     1     -32.246  -4.385  -5.401  0.00  0.00    +0.000 A 
ENDROOT
BRANCH   1   8
ATOM      7  C   UNL     1     -35.452  -3.017  -4.268  0.00  0.00    +0.000 C 
ATOM      8  C   UNL     1     -34.629  -3.839  -4.883  0.00  0.00    +0.000 C 
BRANCH   7  12
ATOM      9  C   UNL     1     -39.243  -4.123  -2.783  0.00  0.00    +0.000 A 
ATOM     10  C   UNL     1     -38.776  -2.836  -2.566  0.00  0.00    +0.000 A 
ATOM     11  C   UNL     1     -37.571  -2.477  -3.156  0.00  0.00    +0.000 A 
ATOM     12  C   UNL     1     -36.839  -3.365  -3.935  0.00  0.00    +0.000 A 
ATOM     13  C   UNL     1     -37.264  -4.687  -3.919  0.00  0.00    +0.000 A 
ATOM     14  C   UNL     1     -38.311  -5.100  -3.116  0.00  0.00    +0.000 A 
ATOM     15  O   UNL     1     -38.423  -6.408  -2.635  0.00  0.00    +0.000 OA
BRANCH   9  17
ATOM     16  C   UNL     1     -41.485  -3.567  -2.090  0.00  0.00    +0.000 C 
ATOM     17  O   UNL     1     -40.531  -4.527  -2.478  0.00  0.00    +0.000 OA
ENDBRANCH   9  17
ENDBRANCH   7  12
ENDBRANCH   1   8
BRANCH   3  18
ATOM     18  O   UNL     1     -31.771  -5.487  -1.475  0.00  0.00    +0.000 OA
ATOM     19  C   UNL     1     -32.642  -6.568  -1.246  0.00  0.00    +0.000 C 
ENDBRANCH   3  18
BRANCH   4  20
ATOM     20  O   UNL     1     -29.668  -5.721  -3.144  0.00  0.00    +0.000 OA
ATOM     21  C   UNL     1     -29.665  -7.134  -3.292  0.00  0.00    +0.000 C 
ENDBRANCH   4  20
BRANCH   5  22
ATOM     22  O   UNL     1     -29.976  -5.068  -5.800  0.00  0.00    +0.000 OA
ATOM     23  C   UNL     1     -29.109  -4.113  -6.355  0.00  0.00    +0.000 C 
ENDBRANCH   5  22
BRANCH   6  24
ATOM     24  O   UNL     1     -32.661  -4.867  -6.647  0.00  0.00    +0.000 OA
ATOM     25  C   UNL     1     -32.461  -4.077  -7.817  0.00  0.00    +0.000 C 
ENDBRANCH   6  24
TORSDOF 7
ENDMDL
MODEL 4
REMARK VINA RESULT:      -5.5     15.015     16.778
REMARK  Name = 
REMARK  7 active torsions:
REMARK  status: ('A' for Active; 'I' for Inactive)
REMARK    1  A    between atoms: O_2  and  C_3
REMARK    2  A    between atoms: C_6  and  C_7
REMARK    3  A    between atoms: C_8  and  C_9
REMARK    4  A    between atoms: C_11  and  O_12
REMARK    5  A    between atoms: C_14  and  O_15
REMARK    6  A    between atoms: C_17  and  O_18
REMARK    7  A    between atoms: C_20  and  O_21
REMARK                            x       y       z     vdW  Elec       q    Type
REMARK                         _______ _______ _______ _____ _____    ______ ____
ROOT
ATOM      1  C   UNL     1     -22.884   9.441  -3.397  0.00  0.00    +0.000 A 
ATOM      2  C   UNL     1     -22.681  10.569  -2.612  0.00  0.00    +0.000 A 
ATOM      3  C   UNL     1     -22.825  10.579  -1.249  0.00  0.00    +0.000 A 
ATOM      4  C   UNL     1     -22.796   9.349  -0.605  0.00  0.00    +0.000 A 
ATOM      5  C   UNL     1     -22.910   8.190  -1.362  0.00  0.00    +0.000 A 
ATOM      6  C   UNL     1     -23.023   8.223  -2.743  0.00  0.00    +0.000 A 
ENDROOT
BRANCH   1   8
ATOM      7  C   UNL     1     -24.365  10.173  -5.206  0.00  0.00    +0.000 C 
ATOM      8  C   UNL     1     -23.244   9.611  -4.809  0.00  0.00    +0.000 C 
BRANCH   7  12
ATOM      9  C   UNL     1     -26.362   8.898  -8.697  0.00  0.00    +0.000 A 
ATOM     10  C   UNL     1     -25.275   8.174  -8.232  0.00  0.00    +0.000 A 
ATOM     11  C   UNL     1     -24.706   8.563  -7.026  0.00  0.00    +0.000 A 
ATOM     12  C   UNL     1     -25.191   9.643  -6.298  0.00  0.00    +0.000 A 
ATOM     13  C   UNL     1     -26.133  10.440  -6.938  0.00  0.00    +0.000 A 
ATOM     14  C   UNL     1     -26.506  10.206  -8.248  0.00  0.00    +0.000 A 
ATOM     15  O   UNL     1     -26.970  11.219  -9.093  0.00  0.00    +0.000 OA
BRANCH   9  17
ATOM     16  C   UNL     1     -28.480   8.025  -9.449  0.00  0.00    +0.000 C 
ATOM     17  O   UNL     1     -27.175   8.470  -9.732  0.00  0.00    +0.000 OA
ENDBRANCH   9  17
ENDBRANCH   7  12
ENDBRANCH   1   8
BRANCH   3  18
ATOM     18  O   UNL     1     -23.331  11.672  -0.538  0.00  0.00    +0.000 OA
ATOM     19  C   UNL     1     -23.315  12.977  -1.064  0.00  0.00    +0.000 C 
ENDBRANCH   3  18
BRANCH   4  20
ATOM     20  O   UNL     1     -23.078   9.326   0.765  0.00  0.00    +0.000 OA
ATOM     21  C   UNL     1     -24.400   9.101   1.233  0.00  0.00    +0.000 C 
ENDBRANCH   4  20
BRANCH   5  22
ATOM     22  O   UNL     1     -22.950   6.988  -0.682  0.00  0.00    +0.000 OA
ATOM     23  C   UNL     1     -21.904   6.052  -0.643  0.00  0.00    +0.000 C 
ENDBRANCH   5  22
BRANCH   6  24
ATOM     24  O   UNL     1     -23.788   7.231  -3.365  0.00  0.00    +0.000 OA
ATOM     25  C   UNL     1     -25.189   7.152  -3.112  0.00  0.00    +0.000 C 
ENDBRANCH   6  24
TORSDOF 7
ENDMDL
MODEL 5
REMARK VINA RESULT:      -5.3     16.745     18.466
REMARK  Name = 
REMARK  7 active torsions:
REMARK  status: ('A' for Active; 'I' for Inactive)
REMARK    1  A    between atoms: O_2  and  C_3
REMARK    2  A    between atoms: C_6  and  C_7
REMARK    3  A    between atoms: C_8  and  C_9
REMARK    4  A    between atoms: C_11  and  O_12
REMARK    5  A    between atoms: C_14  and  O_15
REMARK    6  A    between atoms: C_17  and  O_18
REMARK    7  A    between atoms: C_20  and  O_21
REMARK                            x       y       z     vdW  Elec       q    Type
REMARK                         _______ _______ _______ _____ _____    ______ ____
ROOT
ATOM      1  C   UNL     1     -26.102   7.257   7.333  0.00  0.00    +0.000 A 
ATOM      2  C   UNL     1     -26.328   6.279   8.292  0.00  0.00    +0.000 A 
ATOM      3  C   UNL     1     -25.680   6.239   9.500  0.00  0.00    +0.000 A 
ATOM      4  C   UNL     1     -25.073   7.413   9.927  0.00  0.00    +0.000 A 
ATOM      5  C   UNL     1     -24.904   8.451   9.019  0.00  0.00    +0.000 A 
ATOM      6  C   UNL     1     -25.349   8.362   7.710  0.00  0.00    +0.000 A 
ENDROOT
BRANCH   1   8
ATOM      7  C   UNL     1     -27.419   6.234   5.538  0.00  0.00    +0.000 C 
ATOM      8  C   UNL     1     -26.388   6.954   5.926  0.00  0.00    +0.000 C 
BRANCH   7  12
ATOM      9  C   UNL     1     -27.698   3.429   2.398  0.00  0.00    +0.000 A 
ATOM     10  C   UNL     1     -27.312   4.731   2.116  0.00  0.00    +0.000 A 
ATOM     11  C   UNL     1     -27.133   5.599   3.185  0.00  0.00    +0.000 A 
ATOM     12  C   UNL     1     -27.334   5.198   4.500  0.00  0.00    +0.000 A 
ATOM     13  C   UNL     1     -27.927   3.954   4.678  0.00  0.00    +0.000 A 
ATOM     14  C   UNL     1     -28.353   3.197   3.602  0.00  0.00    +0.000 A 
ATOM     15  O   UNL     1     -29.399   2.275   3.697  0.00  0.00    +0.000 OA
BRANCH   9  17
ATOM     16  C   UNL     1     -26.672   2.415   0.465  0.00  0.00    +0.000 C 
ATOM     17  O   UNL     1     -27.661   2.406   1.468  0.00  0.00    +0.000 OA
ENDBRANCH   9  17
ENDBRANCH   7  12
ENDBRANCH   1   8
BRANCH   3  18
ATOM     18  O   UNL     1     -25.309   5.049  10.133  0.00  0.00    +0.000 OA
ATOM     19  C   UNL     1     -25.982   3.836   9.899  0.00  0.00    +0.000 C 
ENDBRANCH   3  18
BRANCH   4  20
ATOM     20  O   UNL     1     -24.293   7.357  11.086  0.00  0.00    +0.000 OA
ATOM     21  C   UNL     1     -24.816   7.779  12.337  0.00  0.00    +0.000 C 
ENDBRANCH   4  20
BRANCH   5  22
ATOM     22  O   UNL     1     -24.232   9.575   9.458  0.00  0.00    +0.000 OA
ATOM     23  C   UNL     1     -24.843  10.715  10.006  0.00  0.00    +0.000 C 
ENDBRANCH   5  22
BRANCH   6  24
ATOM     24  O   UNL     1     -24.616   9.021   6.718  0.00  0.00    +0.000 OA
ATOM     25  C   UNL     1     -25.032  10.306   6.262  0.00  0.00    +0.000 C 
ENDBRANCH   6  24
TORSDOF 7
ENDMDL
MODEL 6
REMARK VINA RESULT:      -5.3     13.953     18.606
REMARK  Name = 
REMARK  7 active torsions:
REMARK  status: ('A' for Active; 'I' for Inactive)
REMARK    1  A    between atoms: O_2  and  C_3
REMARK    2  A    between atoms: C_6  and  C_7
REMARK    3  A    between atoms: C_8  and  C_9
REMARK    4  A    between atoms: C_11  and  O_12
REMARK    5  A    between atoms: C_14  and  O_15
REMARK    6  A    between atoms: C_17  and  O_18
REMARK    7  A    between atoms: C_20  and  O_21
REMARK                            x       y       z     vdW  Elec       q    Type
REMARK                         _______ _______ _______ _____ _____    ______ ____
ROOT
ATOM      1  C   UNL     1     -25.889  -0.829   7.308  0.00  0.00    +0.000 A 
ATOM      2  C   UNL     1     -26.313  -0.186   8.464  0.00  0.00    +0.000 A 
ATOM      3  C   UNL     1     -27.274   0.791   8.478  0.00  0.00    +0.000 A 
ATOM      4  C   UNL     1     -28.110   0.866   7.371  0.00  0.00    +0.000 A 
ATOM      5  C   UNL     1     -27.766   0.169   6.220  0.00  0.00    +0.000 A 
ATOM      6  C   UNL     1     -26.631  -0.623   6.152  0.00  0.00    +0.000 A 
ENDROOT
BRANCH   1   8
ATOM      7  C   UNL     1     -24.337  -2.725   7.292  0.00  0.00    +0.000 C 
ATOM      8  C   UNL     1     -24.549  -1.426   7.277  0.00  0.00    +0.000 C 
BRANCH   7  12
ATOM      9  C   UNL     1     -21.499  -4.188  10.049  0.00  0.00    +0.000 A 
ATOM     10  C   UNL     1     -22.810  -4.632  10.123  0.00  0.00    +0.000 A 
ATOM     11  C   UNL     1     -23.693  -4.207   9.138  0.00  0.00    +0.000 A 
ATOM     12  C   UNL     1     -23.296  -3.363   8.108  0.00  0.00    +0.000 A 
ATOM     13  C   UNL     1     -22.034  -2.796   8.233  0.00  0.00    +0.000 A 
ATOM     14  C   UNL     1     -21.254  -3.010   9.354  0.00  0.00    +0.000 A 
ATOM     15  O   UNL     1     -20.296  -2.091   9.793  0.00  0.00    +0.000 OA
BRANCH   9  17
ATOM     16  C   UNL     1     -19.604  -5.672  10.211  0.00  0.00    +0.000 C 
ATOM     17  O   UNL     1     -20.469  -4.729  10.799  0.00  0.00    +0.000 OA
ENDBRANCH   9  17
ENDBRANCH   7  12
ENDBRANCH   1   8
BRANCH   3  18
ATOM     18  O   UNL     1     -27.238   1.892   9.340  0.00  0.00    +0.000 OA
ATOM     19  C   UNL     1     -26.038   2.356   9.908  0.00  0.00    +0.000 C 
ENDBRANCH   3  18
BRANCH   4  20
ATOM     20  O   UNL     1     -29.004   1.939   7.304  0.00  0.00    +0.000 OA
ATOM     21  C   UNL     1     -30.361   1.783   7.697  0.00  0.00    +0.000 C 
ENDBRANCH   4  20
BRANCH   5  22
ATOM     22  O   UNL     1     -28.582   0.324   5.115  0.00  0.00    +0.000 OA
ATOM     23  C   UNL     1     -28.382   1.269   4.096  0.00  0.00    +0.000 C 
ENDBRANCH   5  22
BRANCH   6  24
ATOM     24  O   UNL     1     -25.967  -0.719   4.925  0.00  0.00    +0.000 OA
ATOM     25  C   UNL     1     -26.126  -1.886   4.121  0.00  0.00    +0.000 C 
ENDBRANCH   6  24
TORSDOF 7
ENDMDL
MODEL 7
REMARK VINA RESULT:      -5.3     15.236     17.713
REMARK  Name = 
REMARK  7 active torsions:
REMARK  status: ('A' for Active; 'I' for Inactive)
REMARK    1  A    between atoms: O_2  and  C_3
REMARK    2  A    between atoms: C_6  and  C_7
REMARK    3  A    between atoms: C_8  and  C_9
REMARK    4  A    between atoms: C_11  and  O_12
REMARK    5  A    between atoms: C_14  and  O_15
REMARK    6  A    between atoms: C_17  and  O_18
REMARK    7  A    between atoms: C_20  and  O_21
REMARK                            x       y       z     vdW  Elec       q    Type
REMARK                         _______ _______ _______ _____ _____    ______ ____
ROOT
ATOM      1  C   UNL     1     -24.468   7.725  -3.354  0.00  0.00    +0.000 A 
ATOM      2  C   UNL     1     -23.653   6.704  -2.883  0.00  0.00    +0.000 A 
ATOM      3  C   UNL     1     -24.083   5.725  -2.026  0.00  0.00    +0.000 A 
ATOM      4  C   UNL     1     -25.455   5.529  -1.933  0.00  0.00    +0.000 A 
ATOM      5  C   UNL     1     -26.308   6.486  -2.468  0.00  0.00    +0.000 A 
ATOM      6  C   UNL     1     -25.833   7.615  -3.117  0.00  0.00    +0.000 A 
ENDROOT
BRANCH   1   8
ATOM      7  C   UNL     1     -22.763   9.481  -3.248  0.00  0.00    +0.000 C 
ATOM      8  C   UNL     1     -23.854   8.984  -3.791  0.00  0.00    +0.000 C 
BRANCH   7  12
ATOM      9  C   UNL     1     -21.732  13.471  -2.345  0.00  0.00    +0.000 A 
ATOM     10  C   UNL     1     -21.756  13.057  -3.668  0.00  0.00    +0.000 A 
ATOM     11  C   UNL     1     -22.197  11.767  -3.935  0.00  0.00    +0.000 A 
ATOM     12  C   UNL     1     -22.601  10.904  -2.924  0.00  0.00    +0.000 A 
ATOM     13  C   UNL     1     -22.340  11.319  -1.623  0.00  0.00    +0.000 A 
ATOM     14  C   UNL     1     -21.655  12.491  -1.363  0.00  0.00    +0.000 A 
ATOM     15  O   UNL     1     -20.898  12.680  -0.203  0.00  0.00    +0.000 OA
BRANCH   9  17
ATOM     16  C   UNL     1     -22.650  15.489  -1.396  0.00  0.00    +0.000 C 
ATOM     17  O   UNL     1     -21.567  14.791  -1.964  0.00  0.00    +0.000 OA
ENDBRANCH   9  17
ENDBRANCH   7  12
ENDBRANCH   1   8
BRANCH   3  18
ATOM     18  O   UNL     1     -23.280   5.176  -1.021  0.00  0.00    +0.000 OA
ATOM     19  C   UNL     1     -22.028   5.721  -0.684  0.00  0.00    +0.000 C 
ENDBRANCH   3  18
BRANCH   4  20
ATOM     20  O   UNL     1     -25.920   4.632  -0.966  0.00  0.00    +0.000 OA
ATOM     21  C   UNL     1     -26.239   3.291  -1.310  0.00  0.00    +0.000 C 
ENDBRANCH   4  20
BRANCH   5  22
ATOM     22  O   UNL     1     -27.666   6.295  -2.295  0.00  0.00    +0.000 OA
ATOM     23  C   UNL     1     -28.580   6.037  -3.330  0.00  0.00    +0.000 C 
ENDBRANCH   5  22
BRANCH   6  24
ATOM     24  O   UNL     1     -26.574   8.796  -3.013  0.00  0.00    +0.000 OA
ATOM     25  C   UNL     1     -26.689   9.454  -1.754  0.00  0.00    +0.000 C 
ENDBRANCH   6  24
TORSDOF 7
ENDMDL
MODEL 8
REMARK VINA RESULT:      -5.2      2.898      4.509
REMARK  Name = 
REMARK  7 active torsions:
REMARK  status: ('A' for Active; 'I' for Inactive)
REMARK    1  A    between atoms: O_2  and  C_3
REMARK    2  A    between atoms: C_6  and  C_7
REMARK    3  A    between atoms: C_8  and  C_9
REMARK    4  A    between atoms: C_11  and  O_12
REMARK    5  A    between atoms: C_14  and  O_15
REMARK    6  A    between atoms: C_17  and  O_18
REMARK    7  A    between atoms: C_20  and  O_21
REMARK                            x       y       z     vdW  Elec       q    Type
REMARK                         _______ _______ _______ _____ _____    ______ ____
ROOT
ATOM      1  C   UNL     1     -33.245  -5.899  -4.065  0.00  0.00    +0.000 A 
ATOM      2  C   UNL     1     -33.099  -5.441  -5.368  0.00  0.00    +0.000 A 
ATOM      3  C   UNL     1     -31.898  -5.054  -5.904  0.00  0.00    +0.000 A 
ATOM      4  C   UNL     1     -30.750  -5.492  -5.257  0.00  0.00    +0.000 A 
ATOM      5  C   UNL     1     -30.862  -6.037  -3.984  0.00  0.00    +0.000 A 
ATOM      6  C   UNL     1     -32.087  -6.183  -3.353  0.00  0.00    +0.000 A 
ENDROOT
BRANCH   1   8
ATOM      7  C   UNL     1     -35.673  -5.568  -4.067  0.00  0.00    +0.000 C 
ATOM      8  C   UNL     1     -34.552  -5.774  -3.409  0.00  0.00    +0.000 C 
BRANCH   7  12
ATOM      9  C   UNL     1     -38.847  -2.886  -3.337  0.00  0.00    +0.000 A 
ATOM     10  C   UNL     1     -39.069  -4.250  -3.224  0.00  0.00    +0.000 A 
ATOM     11  C   UNL     1     -37.978  -5.098  -3.371  0.00  0.00    +0.000 A 
ATOM     12  C   UNL     1     -36.701  -4.615  -3.629  0.00  0.00    +0.000 A 
ATOM     13  C   UNL     1     -36.608  -3.265  -3.943  0.00  0.00    +0.000 A 
ATOM     14  C   UNL     1     -37.734  -2.471  -4.059  0.00  0.00    +0.000 A 
ATOM     15  O   UNL     1     -37.776  -1.336  -4.873  0.00  0.00    +0.000 OA
BRANCH   9  17
ATOM     16  C   UNL     1     -40.526  -2.119  -1.785  0.00  0.00    +0.000 C 
ATOM     17  O   UNL     1     -39.774  -1.931  -2.961  0.00  0.00    +0.000 OA
ENDBRANCH   9  17
ENDBRANCH   7  12
ENDBRANCH   1   8
BRANCH   3  18
ATOM     18  O   UNL     1     -31.767  -4.000  -6.815  0.00  0.00    +0.000 OA
ATOM     19  C   UNL     1     -32.283  -4.074  -8.122  0.00  0.00    +0.000 C 
ENDBRANCH   3  18
BRANCH   4  20
ATOM     20  O   UNL     1     -29.522  -4.997  -5.706  0.00  0.00    +0.000 OA
ATOM     21  C   UNL     1     -28.987  -3.790  -5.180  0.00  0.00    +0.000 C 
ENDBRANCH   4  20
BRANCH   5  22
ATOM     22  O   UNL     1     -29.693  -6.396  -3.341  0.00  0.00    +0.000 OA
ATOM     23  C   UNL     1     -29.245  -7.716  -3.166  0.00  0.00    +0.000 C 
ENDBRANCH   5  22
BRANCH   6  24
ATOM     24  O   UNL     1     -32.130  -6.056  -1.961  0.00  0.00    +0.000 OA
ATOM     25  C   UNL     1     -31.780  -4.817  -1.349  0.00  0.00    +0.000 C 
ENDBRANCH   6  24
TORSDOF 7
ENDMDL
MODEL 9
REMARK VINA RESULT:      -5.2      2.392      2.785
REMARK  Name = 
REMARK  7 active torsions:
REMARK  status: ('A' for Active; 'I' for Inactive)
REMARK    1  A    between atoms: O_2  and  C_3
REMARK    2  A    between atoms: C_6  and  C_7
REMARK    3  A    between atoms: C_8  and  C_9
REMARK    4  A    between atoms: C_11  and  O_12
REMARK    5  A    between atoms: C_14  and  O_15
REMARK    6  A    between atoms: C_17  and  O_18
REMARK    7  A    between atoms: C_20  and  O_21
REMARK                            x       y       z     vdW  Elec       q    Type
REMARK                         _______ _______ _______ _____ _____    ______ ____
ROOT
ATOM      1  C   UNL     1     -33.384  -3.823  -4.696  0.00  0.00    +0.000 A 
ATOM      2  C   UNL     1     -33.633  -4.780  -3.720  0.00  0.00    +0.000 A 
ATOM      3  C   UNL     1     -32.836  -5.876  -3.513  0.00  0.00    +0.000 A 
ATOM      4  C   UNL     1     -31.549  -5.824  -4.031  0.00  0.00    +0.000 A 
ATOM      5  C   UNL     1     -31.232  -4.829  -4.948  0.00  0.00    +0.000 A 
ATOM      6  C   UNL     1     -32.153  -3.870  -5.339  0.00  0.00    +0.000 A 
ENDROOT
BRANCH   1   8
ATOM      7  C   UNL     1     -35.316  -2.339  -4.441  0.00  0.00    +0.000 C 
ATOM      8  C   UNL     1     -34.502  -3.026  -5.213  0.00  0.00    +0.000 C 
BRANCH   7  12
ATOM      9  C   UNL     1     -39.492  -1.776  -4.663  0.00  0.00    +0.000 A 
ATOM     10  C   UNL     1     -38.663  -1.071  -5.522  0.00  0.00    +0.000 A 
ATOM     11  C   UNL     1     -37.304  -1.356  -5.491  0.00  0.00    +0.000 A 
ATOM     12  C   UNL     1     -36.772  -2.308  -4.630  0.00  0.00    +0.000 A 
ATOM     13  C   UNL     1     -37.632  -2.805  -3.658  0.00  0.00    +0.000 A 
ATOM     14  C   UNL     1     -38.920  -2.322  -3.519  0.00  0.00    +0.000 A 
ATOM     15  O   UNL     1     -39.607  -2.344  -2.301  0.00  0.00    +0.000 OA
BRANCH   9  17
ATOM     16  C   UNL     1     -41.578  -0.567  -4.667  0.00  0.00    +0.000 C 
ATOM     17  O   UNL     1     -40.871  -1.781  -4.769  0.00  0.00    +0.000 OA
ENDBRANCH   9  17
ENDBRANCH   7  12
ENDBRANCH   1   8
BRANCH   3  18
ATOM     18  O   UNL     1     -33.334  -7.127  -3.136  0.00  0.00    +0.000 OA
ATOM     19  C   UNL     1     -34.711  -7.364  -2.971  0.00  0.00    +0.000 C 
ENDBRANCH   3  18
BRANCH   4  20
ATOM     20  O   UNL     1     -30.769  -6.982  -3.951  0.00  0.00    +0.000 OA
ATOM     21  C   UNL     1     -29.920  -7.213  -2.835  0.00  0.00    +0.000 C 
ENDBRANCH   4  20
BRANCH   5  22
ATOM     22  O   UNL     1     -29.965  -4.852  -5.497  0.00  0.00    +0.000 OA
ATOM     23  C   UNL     1     -28.927  -3.968  -5.159  0.00  0.00    +0.000 C 
ENDBRANCH   5  22
BRANCH   6  24
ATOM     24  O   UNL     1     -32.081  -3.382  -6.647  0.00  0.00    +0.000 OA
ATOM     25  C   UNL     1     -32.364  -4.247  -7.744  0.00  0.00    +0.000 C 
ENDBRANCH   6  24
TORSDOF 7
ENDMDL
MODEL 10
REMARK VINA RESULT:      -5.2     12.023     15.126
REMARK  Name = 
REMARK  7 active torsions:
REMARK  status: ('A' for Active; 'I' for Inactive)
REMARK    1  A    between atoms: O_2  and  C_3
REMARK    2  A    between atoms: C_6  and  C_7
REMARK    3  A    between atoms: C_8  and  C_9
REMARK    4  A    between atoms: C_11  and  O_12
REMARK    5  A    between atoms: C_14  and  O_15
REMARK    6  A    between atoms: C_17  and  O_18
REMARK    7  A    between atoms: C_20  and  O_21
REMARK                            x       y       z     vdW  Elec       q    Type
REMARK                         _______ _______ _______ _____ _____    ______ ____
ROOT
ATOM      1  C   UNL     1     -27.175  -0.710   4.771  0.00  0.00    +0.000 A 
ATOM      2  C   UNL     1     -26.881  -0.139   3.540  0.00  0.00    +0.000 A 
ATOM      3  C   UNL     1     -27.539   0.953   3.035  0.00  0.00    +0.000 A 
ATOM      4  C   UNL     1     -28.247   1.734   3.940  0.00  0.00    +0.000 A 
ATOM      5  C   UNL     1     -28.489   1.235   5.213  0.00  0.00    +0.000 A 
ATOM      6  C   UNL     1     -28.022  -0.005   5.618  0.00  0.00    +0.000 A 
ENDROOT
BRANCH   1   8
ATOM      7  C   UNL     1     -27.560  -3.116   4.512  0.00  0.00    +0.000 C 
ATOM      8  C   UNL     1     -26.847  -2.122   4.998  0.00  0.00    +0.000 C 
BRANCH   7  12
ATOM      9  C   UNL     1     -28.494  -6.225   7.207  0.00  0.00    +0.000 A 
ATOM     10  C   UNL     1     -29.473  -5.307   6.862  0.00  0.00    +0.000 A 
ATOM     11  C   UNL     1     -29.160  -4.359   5.896  0.00  0.00    +0.000 A 
ATOM     12  C   UNL     1     -27.912  -4.312   5.288  0.00  0.00    +0.000 A 
ATOM     13  C   UNL     1     -26.928  -5.121   5.845  0.00  0.00    +0.000 A 
ATOM     14  C   UNL     1     -27.169  -5.871   6.981  0.00  0.00    +0.000 A 
ATOM     15  O   UNL     1     -26.156  -6.231   7.875  0.00  0.00    +0.000 OA
BRANCH   9  17
ATOM     16  C   UNL     1     -29.409  -7.253   9.187  0.00  0.00    +0.000 C 
ATOM     17  O   UNL     1     -28.747  -7.365   7.949  0.00  0.00    +0.000 OA
ENDBRANCH   9  17
ENDBRANCH   7  12
ENDBRANCH   1   8
BRANCH   3  18
ATOM     18  O   UNL     1     -27.819   1.120   1.675  0.00  0.00    +0.000 OA
ATOM     19  C   UNL     1     -26.967   1.846   0.822  0.00  0.00    +0.000 C 
ENDBRANCH   3  18
BRANCH   4  20
ATOM     20  O   UNL     1     -29.034   2.770   3.427  0.00  0.00    +0.000 OA
ATOM     21  C   UNL     1     -28.544   4.102   3.378  0.00  0.00    +0.000 C 
ENDBRANCH   4  20
BRANCH   5  22
ATOM     22  O   UNL     1     -29.258   2.007   6.062  0.00  0.00    +0.000 OA
ATOM     23  C   UNL     1     -28.749   2.865   7.050  0.00  0.00    +0.000 C 
ENDBRANCH   5  22
BRANCH   6  24
ATOM     24  O   UNL     1     -28.795  -0.737   6.525  0.00  0.00    +0.000 OA
ATOM     25  C   UNL     1     -28.410  -0.802   7.896  0.00  0.00    +0.000 C 
ENDBRANCH   6  24
TORSDOF 7
ENDMDL
