MODEL 1
REMARK VINA RESULT:      -6.2      0.000      0.000
REMARK  Name = 
REMARK  5 active torsions:
REMARK  status: ('A' for Active; 'I' for Inactive)
REMARK    1  A    between atoms: O_2  and  C_3
REMARK    2  A    between atoms: C_6  and  C_7
REMARK    3  A    between atoms: C_8  and  C_9
REMARK    4  A    between atoms: C_13  and  O_14
REMARK    5  A    between atoms: C_16  and  O_17
REMARK                            x       y       z     vdW  Elec       q    Type
REMARK                         _______ _______ _______ _____ _____    ______ ____
ROOT
ATOM      1  C   UNL     1     -33.247  -4.467  -4.253  0.00  0.00    +0.000 A 
ATOM      2  C   UNL     1     -32.364  -3.453  -4.605  0.00  0.00    +0.000 A 
ATOM      3  C   UNL     1     -31.068  -3.689  -4.991  0.00  0.00    +0.000 A 
ATOM      4  C   UNL     1     -30.505  -4.910  -4.669  0.00  0.00    +0.000 A 
ATOM      5  C   UNL     1     -31.325  -5.906  -4.163  0.00  0.00    +0.000 A 
ATOM      6  C   UNL     1     -32.668  -5.684  -3.923  0.00  0.00    +0.000 A 
ATOM      7  O   UNL     1     -29.247  -4.986  -5.269  0.00  0.00    +0.000 OA
ATOM      8  C   UNL     1     -29.176  -3.980  -6.273  0.00  0.00    +0.000 C 
ATOM      9  O   UNL     1     -30.127  -3.033  -5.790  0.00  0.00    +0.000 OA
ENDROOT
BRANCH   1  11
ATOM     10  C   UNL     1     -35.573  -3.742  -3.984  0.00  0.00    +0.000 C 
ATOM     11  C   UNL     1     -34.660  -4.437  -4.632  0.00  0.00    +0.000 C 
BRANCH  10  15
ATOM     12  C   UNL     1     -37.252  -0.881  -6.512  0.00  0.00    +0.000 A 
ATOM     13  C   UNL     1     -37.140  -0.581  -5.160  0.00  0.00    +0.000 A 
ATOM     14  C   UNL     1     -36.571  -1.470  -4.256  0.00  0.00    +0.000 A 
ATOM     15  C   UNL     1     -36.484  -2.801  -4.645  0.00  0.00    +0.000 A 
ATOM     16  C   UNL     1     -37.030  -3.186  -5.851  0.00  0.00    +0.000 A 
ATOM     17  C   UNL     1     -37.360  -2.233  -6.808  0.00  0.00    +0.000 A 
ATOM     18  O   UNL     1     -37.491  -2.548  -8.158  0.00  0.00    +0.000 OA
BRANCH  12  20
ATOM     19  C   UNL     1     -37.886   1.002  -7.944  0.00  0.00    +0.000 C 
ATOM     20  O   UNL     1     -36.918   0.059  -7.493  0.00  0.00    +0.000 OA
ENDBRANCH  12  20
ENDBRANCH  10  15
ENDBRANCH   1  11
BRANCH   5  21
ATOM     21  O   UNL     1     -30.808  -7.142  -3.788  0.00  0.00    +0.000 OA
ATOM     22  C   UNL     1     -30.105  -7.284  -2.578  0.00  0.00    +0.000 C 
ENDBRANCH   5  21
BRANCH   6  23
ATOM     23  O   UNL     1     -33.489  -6.812  -3.845  0.00  0.00    +0.000 OA
ATOM     24  C   UNL     1     -33.932  -7.288  -2.576  0.00  0.00    +0.000 C 
ENDBRANCH   6  23
TORSDOF 5
ENDMDL
MODEL 2
REMARK VINA RESULT:      -5.9     14.512     17.058
REMARK  Name = 
REMARK  5 active torsions:
REMARK  status: ('A' for Active; 'I' for Inactive)
REMARK    1  A    between atoms: O_2  and  C_3
REMARK    2  A    between atoms: C_6  and  C_7
REMARK    3  A    between atoms: C_8  and  C_9
REMARK    4  A    between atoms: C_13  and  O_14
REMARK    5  A    between atoms: C_16  and  O_17
REMARK                            x       y       z     vdW  Elec       q    Type
REMARK                         _______ _______ _______ _____ _____    ______ ____
ROOT
ATOM      1  C   UNL     1     -21.323  -1.088   7.088  0.00  0.00    +0.000 A 
ATOM      2  C   UNL     1     -20.684   0.063   6.641  0.00  0.00    +0.000 A 
ATOM      3  C   UNL     1     -19.321   0.160   6.508  0.00  0.00    +0.000 A 
ATOM      4  C   UNL     1     -18.534  -0.757   7.180  0.00  0.00    +0.000 A 
ATOM      5  C   UNL     1     -19.150  -1.844   7.780  0.00  0.00    +0.000 A 
ATOM      6  C   UNL     1     -20.524  -1.995   7.770  0.00  0.00    +0.000 A 
ATOM      7  O   UNL     1     -17.207  -0.561   6.799  0.00  0.00    +0.000 OA
ATOM      8  C   UNL     1     -17.200   0.222   5.610  0.00  0.00    +0.000 C 
ATOM      9  O   UNL     1     -18.443   0.912   5.722  0.00  0.00    +0.000 OA
ENDROOT
BRANCH   1  11
ATOM     10  C   UNL     1     -23.699  -1.675   7.212  0.00  0.00    +0.000 C 
ATOM     11  C   UNL     1     -22.587  -1.551   6.516  0.00  0.00    +0.000 C 
BRANCH  10  15
ATOM     12  C   UNL     1     -27.744  -0.846   6.624  0.00  0.00    +0.000 A 
ATOM     13  C   UNL     1     -26.960  -1.128   5.512  0.00  0.00    +0.000 A 
ATOM     14  C   UNL     1     -25.611  -1.437   5.625  0.00  0.00    +0.000 A 
ATOM     15  C   UNL     1     -24.973  -1.073   6.804  0.00  0.00    +0.000 A 
ATOM     16  C   UNL     1     -25.673  -0.363   7.756  0.00  0.00    +0.000 A 
ATOM     17  C   UNL     1     -27.061  -0.296   7.702  0.00  0.00    +0.000 A 
ATOM     18  O   UNL     1     -27.836   0.008   8.817  0.00  0.00    +0.000 OA
BRANCH  12  20
ATOM     19  C   UNL     1     -29.172  -2.804   6.971  0.00  0.00    +0.000 C 
ATOM     20  O   UNL     1     -29.019  -1.402   6.773  0.00  0.00    +0.000 OA
ENDBRANCH  12  20
ENDBRANCH  10  15
ENDBRANCH   1  11
BRANCH   5  21
ATOM     21  O   UNL     1     -18.414  -2.780   8.501  0.00  0.00    +0.000 OA
ATOM     22  C   UNL     1     -17.793  -3.858   7.845  0.00  0.00    +0.000 C 
ENDBRANCH   5  21
BRANCH   6  23
ATOM     23  O   UNL     1     -21.018  -3.283   7.989  0.00  0.00    +0.000 OA
ATOM     24  C   UNL     1     -21.474  -3.663   9.285  0.00  0.00    +0.000 C 
ENDBRANCH   6  23
TORSDOF 5
ENDMDL
MODEL 3
REMARK VINA RESULT:      -5.9      2.252      3.032
REMARK  Name = 
REMARK  5 active torsions:
REMARK  status: ('A' for Active; 'I' for Inactive)
REMARK    1  A    between atoms: O_2  and  C_3
REMARK    2  A    between atoms: C_6  and  C_7
REMARK    3  A    between atoms: C_8  and  C_9
REMARK    4  A    between atoms: C_13  and  O_14
REMARK    5  A    between atoms: C_16  and  O_17
REMARK                            x       y       z     vdW  Elec       q    Type
REMARK                         _______ _______ _______ _____ _____    ______ ____
ROOT
ATOM      1  C   UNL     1     -32.919  -3.702  -3.882  0.00  0.00    +0.000 A 
ATOM      2  C   UNL     1     -32.160  -3.044  -4.842  0.00  0.00    +0.000 A 
ATOM      3  C   UNL     1     -30.940  -3.500  -5.274  0.00  0.00    +0.000 A 
ATOM      4  C   UNL     1     -30.271  -4.418  -4.486  0.00  0.00    +0.000 A 
ATOM      5  C   UNL     1     -30.943  -4.986  -3.416  0.00  0.00    +0.000 A 
ATOM      6  C   UNL     1     -32.234  -4.613  -3.091  0.00  0.00    +0.000 A 
ATOM      7  O   UNL     1     -29.133  -4.841  -5.174  0.00  0.00    +0.000 OA
ATOM      8  C   UNL     1     -29.285  -4.481  -6.542  0.00  0.00    +0.000 C 
ATOM      9  O   UNL     1     -30.183  -3.377  -6.444  0.00  0.00    +0.000 OA
ENDROOT
BRANCH   1  11
ATOM     10  C   UNL     1     -35.097  -3.150  -4.862  0.00  0.00    +0.000 C 
ATOM     11  C   UNL     1     -34.376  -3.803  -3.973  0.00  0.00    +0.000 C 
BRANCH  10  15
ATOM     12  C   UNL     1     -36.927  -5.457  -7.815  0.00  0.00    +0.000 A 
ATOM     13  C   UNL     1     -37.064  -4.076  -7.879  0.00  0.00    +0.000 A 
ATOM     14  C   UNL     1     -36.466  -3.236  -6.948  0.00  0.00    +0.000 A 
ATOM     15  C   UNL     1     -36.071  -3.803  -5.743  0.00  0.00    +0.000 A 
ATOM     16  C   UNL     1     -36.359  -5.129  -5.498  0.00  0.00    +0.000 A 
ATOM     17  C   UNL     1     -36.730  -5.971  -6.540  0.00  0.00    +0.000 A 
ATOM     18  O   UNL     1     -36.609  -7.356  -6.458  0.00  0.00    +0.000 OA
BRANCH  12  20
ATOM     19  C   UNL     1     -37.700  -6.610  -9.833  0.00  0.00    +0.000 C 
ATOM     20  O   UNL     1     -36.647  -6.212  -8.959  0.00  0.00    +0.000 OA
ENDBRANCH  12  20
ENDBRANCH  10  15
ENDBRANCH   1  11
BRANCH   5  21
ATOM     21  O   UNL     1     -30.310  -5.888  -2.566  0.00  0.00    +0.000 OA
ATOM     22  C   UNL     1     -29.969  -7.176  -3.017  0.00  0.00    +0.000 C 
ENDBRANCH   5  21
BRANCH   6  23
ATOM     23  O   UNL     1     -32.973  -5.510  -2.316  0.00  0.00    +0.000 OA
ATOM     24  C   UNL     1     -33.531  -6.679  -2.911  0.00  0.00    +0.000 C 
ENDBRANCH   6  23
TORSDOF 5
ENDMDL
MODEL 4
REMARK VINA RESULT:      -5.7     13.731     16.514
REMARK  Name = 
REMARK  5 active torsions:
REMARK  status: ('A' for Active; 'I' for Inactive)
REMARK    1  A    between atoms: O_2  and  C_3
REMARK    2  A    between atoms: C_6  and  C_7
REMARK    3  A    between atoms: C_8  and  C_9
REMARK    4  A    between atoms: C_13  and  O_14
REMARK    5  A    between atoms: C_16  and  O_17
REMARK                            x       y       z     vdW  Elec       q    Type
REMARK                         _______ _______ _______ _____ _____    ______ ____
ROOT
ATOM      1  C   UNL     1     -27.435   8.796 -10.461  0.00  0.00    +0.000 A 
ATOM      2  C   UNL     1     -27.187  10.163 -10.421  0.00  0.00    +0.000 A 
ATOM      3  C   UNL     1     -28.135  11.107 -10.730  0.00  0.00    +0.000 A 
ATOM      4  C   UNL     1     -29.241  10.704 -11.455  0.00  0.00    +0.000 A 
ATOM      5  C   UNL     1     -29.445   9.349 -11.656  0.00  0.00    +0.000 A 
ATOM      6  C   UNL     1     -28.542   8.406 -11.200  0.00  0.00    +0.000 A 
ATOM      7  O   UNL     1     -30.128  11.779 -11.537  0.00  0.00    +0.000 OA
ATOM      8  C   UNL     1     -29.757  12.733 -10.548  0.00  0.00    +0.000 C 
ATOM      9  O   UNL     1     -28.371  12.440 -10.381  0.00  0.00    +0.000 OA
ENDROOT
BRANCH   1  11
ATOM     10  C   UNL     1     -25.681   7.981  -8.956  0.00  0.00    +0.000 C 
ATOM     11  C   UNL     1     -26.893   7.875  -9.462  0.00  0.00    +0.000 C 
BRANCH  10  15
ATOM     12  C   UNL     1     -25.078   9.158  -5.000  0.00  0.00    +0.000 A 
ATOM     13  C   UNL     1     -24.017   8.576  -5.684  0.00  0.00    +0.000 A 
ATOM     14  C   UNL     1     -24.130   8.179  -7.010  0.00  0.00    +0.000 A 
ATOM     15  C   UNL     1     -25.412   8.003  -7.513  0.00  0.00    +0.000 A 
ATOM     16  C   UNL     1     -26.492   8.149  -6.669  0.00  0.00    +0.000 A 
ATOM     17  C   UNL     1     -26.340   8.778  -5.438  0.00  0.00    +0.000 A 
ATOM     18  O   UNL     1     -27.413   9.339  -4.751  0.00  0.00    +0.000 OA
BRANCH  12  20
ATOM     19  C   UNL     1     -24.215  11.432  -4.718  0.00  0.00    +0.000 C 
ATOM     20  O   UNL     1     -24.892  10.290  -4.201  0.00  0.00    +0.000 OA
ENDBRANCH  12  20
ENDBRANCH  10  15
ENDBRANCH   1  11
BRANCH   5  21
ATOM     21  O   UNL     1     -30.520   8.886 -12.409  0.00  0.00    +0.000 OA
ATOM     22  C   UNL     1     -31.825   8.918 -11.884  0.00  0.00    +0.000 C 
ENDBRANCH   5  21
BRANCH   6  23
ATOM     23  O   UNL     1     -29.017   7.101 -11.049  0.00  0.00    +0.000 OA
ATOM     24  C   UNL     1     -28.660   6.095 -11.994  0.00  0.00    +0.000 C 
ENDBRANCH   6  23
TORSDOF 5
ENDMDL
MODEL 5
REMARK VINA RESULT:      -5.7     16.216     19.687
REMARK  Name = 
REMARK  5 active torsions:
REMARK  status: ('A' for Active; 'I' for Inactive)
REMARK    1  A    between atoms: O_2  and  C_3
REMARK    2  A    between atoms: C_6  and  C_7
REMARK    3  A    between atoms: C_8  and  C_9
REMARK    4  A    between atoms: C_13  and  O_14
REMARK    5  A    between atoms: C_16  and  O_17
REMARK                            x       y       z     vdW  Elec       q    Type
REMARK                         _______ _______ _______ _____ _____    ______ ____
ROOT
ATOM      1  C   UNL     1     -18.557  -2.884   8.547  0.00  0.00    +0.000 A 
ATOM      2  C   UNL     1     -19.215  -1.726   8.943  0.00  0.00    +0.000 A 
ATOM      3  C   UNL     1     -19.283  -0.599   8.163  0.00  0.00    +0.000 A 
ATOM      4  C   UNL     1     -18.372  -0.465   7.131  0.00  0.00    +0.000 A 
ATOM      5  C   UNL     1     -17.579  -1.552   6.803  0.00  0.00    +0.000 A 
ATOM      6  C   UNL     1     -17.639  -2.734   7.518  0.00  0.00    +0.000 A 
ATOM      7  O   UNL     1     -18.707   0.672   6.394  0.00  0.00    +0.000 OA
ATOM      8  C   UNL     1     -20.040   1.039   6.729  0.00  0.00    +0.000 C 
ATOM      9  O   UNL     1     -20.166   0.478   8.035  0.00  0.00    +0.000 OA
ENDROOT
BRANCH   1  11
ATOM     10  C   UNL     1     -19.765  -4.513   9.923  0.00  0.00    +0.000 C 
ATOM     11  C   UNL     1     -19.084  -4.218   8.834  0.00  0.00    +0.000 C 
BRANCH  10  15
ATOM     12  C   UNL     1     -23.464  -6.055   8.765  0.00  0.00    +0.000 A 
ATOM     13  C   UNL     1     -23.438  -5.067   9.742  0.00  0.00    +0.000 A 
ATOM     14  C   UNL     1     -22.249  -4.486  10.166  0.00  0.00    +0.000 A 
ATOM     15  C   UNL     1     -21.075  -5.175   9.896  0.00  0.00    +0.000 A 
ATOM     16  C   UNL     1     -21.145  -6.419   9.305  0.00  0.00    +0.000 A 
ATOM     17  C   UNL     1     -22.319  -6.837   8.688  0.00  0.00    +0.000 A 
ATOM     18  O   UNL     1     -22.337  -7.842   7.725  0.00  0.00    +0.000 OA
BRANCH  12  20
ATOM     19  C   UNL     1     -25.703  -6.561   7.912  0.00  0.00    +0.000 C 
ATOM     20  O   UNL     1     -24.398  -6.021   7.724  0.00  0.00    +0.000 OA
ENDBRANCH  12  20
ENDBRANCH  10  15
ENDBRANCH   1  11
BRANCH   5  21
ATOM     21  O   UNL     1     -16.619  -1.466   5.798  0.00  0.00    +0.000 OA
ATOM     22  C   UNL     1     -15.522  -0.596   5.932  0.00  0.00    +0.000 C 
ENDBRANCH   5  21
BRANCH   6  23
ATOM     23  O   UNL     1     -17.161  -3.881   6.880  0.00  0.00    +0.000 OA
ATOM     24  C   UNL     1     -17.823  -4.384   5.722  0.00  0.00    +0.000 C 
ENDBRANCH   6  23
TORSDOF 5
ENDMDL
MODEL 6
REMARK VINA RESULT:      -5.6      2.983      7.517
REMARK  Name = 
REMARK  5 active torsions:
REMARK  status: ('A' for Active; 'I' for Inactive)
REMARK    1  A    between atoms: O_2  and  C_3
REMARK    2  A    between atoms: C_6  and  C_7
REMARK    3  A    between atoms: C_8  and  C_9
REMARK    4  A    between atoms: C_13  and  O_14
REMARK    5  A    between atoms: C_16  and  O_17
REMARK                            x       y       z     vdW  Elec       q    Type
REMARK                         _______ _______ _______ _____ _____    ______ ____
ROOT
ATOM      1  C   UNL     1     -35.907  -4.606  -7.247  0.00  0.00    +0.000 A 
ATOM      2  C   UNL     1     -35.602  -5.937  -7.508  0.00  0.00    +0.000 A 
ATOM      3  C   UNL     1     -36.125  -6.631  -8.570  0.00  0.00    +0.000 A 
ATOM      4  C   UNL     1     -37.261  -6.131  -9.179  0.00  0.00    +0.000 A 
ATOM      5  C   UNL     1     -37.696  -4.862  -8.831  0.00  0.00    +0.000 A 
ATOM      6  C   UNL     1     -37.055  -4.120  -7.856  0.00  0.00    +0.000 A 
ATOM      7  O   UNL     1     -37.536  -6.909 -10.305  0.00  0.00    +0.000 OA
ATOM      8  C   UNL     1     -36.367  -7.658 -10.619  0.00  0.00    +0.000 C 
ATOM      9  O   UNL     1     -35.725  -7.723  -9.347  0.00  0.00    +0.000 OA
ENDROOT
BRANCH   1  11
ATOM     10  C   UNL     1     -34.775  -3.303  -5.507  0.00  0.00    +0.000 C 
ATOM     11  C   UNL     1     -34.904  -3.654  -6.771  0.00  0.00    +0.000 C 
BRANCH  10  15
ATOM     12  C   UNL     1     -31.019  -4.414  -4.074  0.00  0.00    +0.000 A 
ATOM     13  C   UNL     1     -32.085  -4.393  -3.182  0.00  0.00    +0.000 A 
ATOM     14  C   UNL     1     -33.371  -4.057  -3.585  0.00  0.00    +0.000 A 
ATOM     15  C   UNL     1     -33.500  -3.365  -4.782  0.00  0.00    +0.000 A 
ATOM     16  C   UNL     1     -32.365  -2.978  -5.462  0.00  0.00    +0.000 A 
ATOM     17  C   UNL     1     -31.134  -3.543  -5.150  0.00  0.00    +0.000 A 
ATOM     18  O   UNL     1     -30.065  -3.541  -6.042  0.00  0.00    +0.000 OA
BRANCH  12  20
ATOM     19  C   UNL     1     -30.148  -6.470  -3.068  0.00  0.00    +0.000 C 
ATOM     20  O   UNL     1     -30.102  -5.470  -4.082  0.00  0.00    +0.000 OA
ENDBRANCH  12  20
ENDBRANCH  10  15
ENDBRANCH   1  11
BRANCH   5  21
ATOM     21  O   UNL     1     -38.853  -4.321  -9.383  0.00  0.00    +0.000 OA
ATOM     22  C   UNL     1     -40.120  -4.749  -8.947  0.00  0.00    +0.000 C 
ENDBRANCH   5  21
BRANCH   6  23
ATOM     23  O   UNL     1     -37.264  -2.739  -7.877  0.00  0.00    +0.000 OA
ATOM     24  C   UNL     1     -38.161  -2.137  -6.947  0.00  0.00    +0.000 C 
ENDBRANCH   6  23
TORSDOF 5
ENDMDL
MODEL 7
REMARK VINA RESULT:      -5.5     14.939     18.320
REMARK  Name = 
REMARK  5 active torsions:
REMARK  status: ('A' for Active; 'I' for Inactive)
REMARK    1  A    between atoms: O_2  and  C_3
REMARK    2  A    between atoms: C_6  and  C_7
REMARK    3  A    between atoms: C_8  and  C_9
REMARK    4  A    between atoms: C_13  and  O_14
REMARK    5  A    between atoms: C_16  and  O_17
REMARK                            x       y       z     vdW  Elec       q    Type
REMARK                         _______ _______ _______ _____ _____    ______ ____
ROOT
ATOM      1  C   UNL     1     -20.538  -3.829   9.505  0.00  0.00    +0.000 A 
ATOM      2  C   UNL     1     -20.470  -2.458   9.724  0.00  0.00    +0.000 A 
ATOM      3  C   UNL     1     -19.618  -1.631   9.036  0.00  0.00    +0.000 A 
ATOM      4  C   UNL     1     -18.541  -2.203   8.383  0.00  0.00    +0.000 A 
ATOM      5  C   UNL     1     -18.487  -3.584   8.278  0.00  0.00    +0.000 A 
ATOM      6  C   UNL     1     -19.447  -4.391   8.858  0.00  0.00    +0.000 A 
ATOM      7  O   UNL     1     -17.895  -1.209   7.646  0.00  0.00    +0.000 OA
ATOM      8  C   UNL     1     -18.780  -0.100   7.532  0.00  0.00    +0.000 C 
ATOM      9  O   UNL     1     -19.605  -0.279   8.682  0.00  0.00    +0.000 OA
ENDROOT
BRANCH   1  11
ATOM     10  C   UNL     1     -22.963  -4.014   9.199  0.00  0.00    +0.000 C 
ATOM     11  C   UNL     1     -21.805  -4.559   9.516  0.00  0.00    +0.000 C 
BRANCH  10  15
ATOM     12  C   UNL     1     -26.270  -5.649   7.253  0.00  0.00    +0.000 A 
ATOM     13  C   UNL     1     -25.121  -6.423   7.363  0.00  0.00    +0.000 A 
ATOM     14  C   UNL     1     -23.985  -5.960   8.017  0.00  0.00    +0.000 A 
ATOM     15  C   UNL     1     -23.875  -4.589   8.204  0.00  0.00    +0.000 A 
ATOM     16  C   UNL     1     -24.838  -3.758   7.671  0.00  0.00    +0.000 A 
ATOM     17  C   UNL     1     -26.057  -4.276   7.249  0.00  0.00    +0.000 A 
ATOM     18  O   UNL     1     -27.197  -3.488   7.121  0.00  0.00    +0.000 OA
BRANCH  12  20
ATOM     19  C   UNL     1     -27.883  -6.657   8.794  0.00  0.00    +0.000 C 
ATOM     20  O   UNL     1     -27.536  -6.192   7.493  0.00  0.00    +0.000 OA
ENDBRANCH  12  20
ENDBRANCH  10  15
ENDBRANCH   1  11
BRANCH   5  21
ATOM     21  O   UNL     1     -17.410  -4.217   7.665  0.00  0.00    +0.000 OA
ATOM     22  C   UNL     1     -17.299  -4.239   6.263  0.00  0.00    +0.000 C 
ENDBRANCH   5  21
BRANCH   6  23
ATOM     23  O   UNL     1     -19.569  -5.688   8.352  0.00  0.00    +0.000 OA
ATOM     24  C   UNL     1     -19.095  -6.799   9.108  0.00  0.00    +0.000 C 
ENDBRANCH   6  23
TORSDOF 5
ENDMDL
MODEL 8
REMARK VINA RESULT:      -5.5     33.599     36.949
REMARK  Name = 
REMARK  5 active torsions:
REMARK  status: ('A' for Active; 'I' for Inactive)
REMARK    1  A    between atoms: O_2  and  C_3
REMARK    2  A    between atoms: C_6  and  C_7
REMARK    3  A    between atoms: C_8  and  C_9
REMARK    4  A    between atoms: C_13  and  O_14
REMARK    5  A    between atoms: C_16  and  O_17
REMARK                            x       y       z     vdW  Elec       q    Type
REMARK                         _______ _______ _______ _____ _____    ______ ____
ROOT
ATOM      1  C   UNL     1     -11.540  19.165 -19.684  0.00  0.00    +0.000 A 
ATOM      2  C   UNL     1     -11.566  17.946 -20.351  0.00  0.00    +0.000 A 
ATOM      3  C   UNL     1     -12.726  17.352 -20.782  0.00  0.00    +0.000 A 
ATOM      4  C   UNL     1     -13.919  17.773 -20.222  0.00  0.00    +0.000 A 
ATOM      5  C   UNL     1     -13.913  18.900 -19.417  0.00  0.00    +0.000 A 
ATOM      6  C   UNL     1     -12.741  19.570 -19.120  0.00  0.00    +0.000 A 
ATOM      7  O   UNL     1     -14.966  17.142 -20.895  0.00  0.00    +0.000 OA
ATOM      8  C   UNL     1     -14.455  16.622 -22.118  0.00  0.00    +0.000 C 
ATOM      9  O   UNL     1     -13.075  16.457 -21.798  0.00  0.00    +0.000 OA
ENDROOT
BRANCH   1  11
ATOM     10  C   UNL     1      -9.240  19.867 -20.164  0.00  0.00    +0.000 C 
ATOM     11  C   UNL     1     -10.502  20.167 -19.931  0.00  0.00    +0.000 C 
BRANCH  10  15
ATOM     12  C   UNL     1      -7.760  22.224 -23.270  0.00  0.00    +0.000 A 
ATOM     13  C   UNL     1      -8.422  21.046 -23.594  0.00  0.00    +0.000 A 
ATOM     14  C   UNL     1      -8.964  20.218 -22.620  0.00  0.00    +0.000 A 
ATOM     15  C   UNL     1      -8.495  20.373 -21.322  0.00  0.00    +0.000 A 
ATOM     16  C   UNL     1      -7.474  21.267 -21.078  0.00  0.00    +0.000 A 
ATOM     17  C   UNL     1      -7.143  22.230 -22.025  0.00  0.00    +0.000 A 
ATOM     18  O   UNL     1      -6.461  23.397 -21.693  0.00  0.00    +0.000 OA
BRANCH  12  20
ATOM     19  C   UNL     1      -9.340  23.861 -24.176  0.00  0.00    +0.000 C 
ATOM     20  O   UNL     1      -8.004  23.410 -23.969  0.00  0.00    +0.000 OA
ENDBRANCH  12  20
ENDBRANCH  10  15
ENDBRANCH   1  11
BRANCH   5  21
ATOM     21  O   UNL     1     -15.075  19.349 -18.798  0.00  0.00    +0.000 OA
ATOM     22  C   UNL     1     -15.576  18.694 -17.658  0.00  0.00    +0.000 C 
ENDBRANCH   5  21
BRANCH   6  23
ATOM     23  O   UNL     1     -12.863  20.895 -18.694  0.00  0.00    +0.000 OA
ATOM     24  C   UNL     1     -12.636  21.232 -17.328  0.00  0.00    +0.000 C 
ENDBRANCH   6  23
TORSDOF 5
ENDMDL
MODEL 9
REMARK VINA RESULT:      -5.4     32.091     35.483
REMARK  Name = 
REMARK  5 active torsions:
REMARK  status: ('A' for Active; 'I' for Inactive)
REMARK    1  A    between atoms: O_2  and  C_3
REMARK    2  A    between atoms: C_6  and  C_7
REMARK    3  A    between atoms: C_8  and  C_9
REMARK    4  A    between atoms: C_13  and  O_14
REMARK    5  A    between atoms: C_16  and  O_17
REMARK                            x       y       z     vdW  Elec       q    Type
REMARK                         _______ _______ _______ _____ _____    ______ ____
ROOT
ATOM      1  C   UNL     1     -14.108  17.644 -21.229  0.00  0.00    +0.000 A 
ATOM      2  C   UNL     1     -15.008  17.487 -22.278  0.00  0.00    +0.000 A 
ATOM      3  C   UNL     1     -16.233  18.104 -22.312  0.00  0.00    +0.000 A 
ATOM      4  C   UNL     1     -16.752  18.589 -21.125  0.00  0.00    +0.000 A 
ATOM      5  C   UNL     1     -15.934  18.617 -20.007  0.00  0.00    +0.000 A 
ATOM      6  C   UNL     1     -14.644  18.122 -20.042  0.00  0.00    +0.000 A 
ATOM      7  O   UNL     1     -17.925  19.288 -21.412  0.00  0.00    +0.000 OA
ATOM      8  C   UNL     1     -17.944  19.567 -22.807  0.00  0.00    +0.000 C 
ATOM      9  O   UNL     1     -17.116  18.521 -23.313  0.00  0.00    +0.000 OA
ENDROOT
BRANCH   1  11
ATOM     10  C   UNL     1     -12.103  18.749 -22.105  0.00  0.00    +0.000 C 
ATOM     11  C   UNL     1     -12.666  17.755 -21.449  0.00  0.00    +0.000 C 
BRANCH  10  15
ATOM     12  C   UNL     1      -8.336  20.249 -21.130  0.00  0.00    +0.000 A 
ATOM     13  C   UNL     1      -9.141  19.772 -20.103  0.00  0.00    +0.000 A 
ATOM     14  C   UNL     1     -10.399  19.236 -20.347  0.00  0.00    +0.000 A 
ATOM     15  C   UNL     1     -10.996  19.545 -21.562  0.00  0.00    +0.000 A 
ATOM     16  C   UNL     1     -10.363  20.419 -22.419  0.00  0.00    +0.000 A 
ATOM     17  C   UNL     1      -9.019  20.727 -22.241  0.00  0.00    +0.000 A 
ATOM     18  O   UNL     1      -8.225  21.225 -23.270  0.00  0.00    +0.000 OA
BRANCH  12  20
ATOM     19  C   UNL     1      -6.031  20.689 -20.428  0.00  0.00    +0.000 C 
ATOM     20  O   UNL     1      -6.974  19.937 -21.187  0.00  0.00    +0.000 OA
ENDBRANCH  12  20
ENDBRANCH  10  15
ENDBRANCH   1  11
BRANCH   5  21
ATOM     21  O   UNL     1     -16.412  19.060 -18.777  0.00  0.00    +0.000 OA
ATOM     22  C   UNL     1     -17.418  18.345 -18.103  0.00  0.00    +0.000 C 
ENDBRANCH   5  21
BRANCH   6  23
ATOM     23  O   UNL     1     -13.769  18.575 -19.052  0.00  0.00    +0.000 OA
ATOM     24  C   UNL     1     -13.276  17.672 -18.064  0.00  0.00    +0.000 C 
ENDBRANCH   6  23
TORSDOF 5
ENDMDL
MODEL 10
REMARK VINA RESULT:      -5.4      9.394     12.615
REMARK  Name = 
REMARK  5 active torsions:
REMARK  status: ('A' for Active; 'I' for Inactive)
REMARK    1  A    between atoms: O_2  and  C_3
REMARK    2  A    between atoms: C_6  and  C_7
REMARK    3  A    between atoms: C_8  and  C_9
REMARK    4  A    between atoms: C_13  and  O_14
REMARK    5  A    between atoms: C_16  and  O_17
REMARK                            x       y       z     vdW  Elec       q    Type
REMARK                         _______ _______ _______ _____ _____    ______ ____
ROOT
ATOM      1  C   UNL     1     -32.943   7.000  -7.442  0.00  0.00    +0.000 A 
ATOM      2  C   UNL     1     -32.414   8.284  -7.395  0.00  0.00    +0.000 A 
ATOM      3  C   UNL     1     -32.035   8.896  -6.226  0.00  0.00    +0.000 A 
ATOM      4  C   UNL     1     -32.528   8.391  -5.037  0.00  0.00    +0.000 A 
ATOM      5  C   UNL     1     -33.204   7.182  -5.060  0.00  0.00    +0.000 A 
ATOM      6  C   UNL     1     -33.443   6.509  -6.244  0.00  0.00    +0.000 A 
ATOM      7  O   UNL     1     -31.914   9.068  -3.983  0.00  0.00    +0.000 OA
ATOM      8  C   UNL     1     -30.763   9.731  -4.495  0.00  0.00    +0.000 C 
ATOM      9  O   UNL     1     -31.118   9.889  -5.868  0.00  0.00    +0.000 OA
ENDROOT
BRANCH   1  11
ATOM     10  C   UNL     1     -32.514   6.389  -9.776  0.00  0.00    +0.000 C 
ATOM     11  C   UNL     1     -32.602   6.054  -8.505  0.00  0.00    +0.000 C 
BRANCH  10  15
ATOM     12  C   UNL     1     -28.632   5.766 -11.170  0.00  0.00    +0.000 A 
ATOM     13  C   UNL     1     -29.380   6.790 -11.737  0.00  0.00    +0.000 A 
ATOM     14  C   UNL     1     -30.671   7.077 -11.313  0.00  0.00    +0.000 A 
ATOM     15  C   UNL     1     -31.341   6.088 -10.606  0.00  0.00    +0.000 A 
ATOM     16  C   UNL     1     -30.739   4.860 -10.431  0.00  0.00    +0.000 A 
ATOM     17  C   UNL     1     -29.375   4.710 -10.656  0.00  0.00    +0.000 A 
ATOM     18  O   UNL     1     -28.638   3.668 -10.100  0.00  0.00    +0.000 OA
BRANCH  12  20
ATOM     19  C   UNL     1     -26.760   7.269 -10.689  0.00  0.00    +0.000 C 
ATOM     20  O   UNL     1     -27.291   5.953 -10.823  0.00  0.00    +0.000 OA
ENDBRANCH  12  20
ENDBRANCH  10  15
ENDBRANCH   1  11
BRANCH   5  21
ATOM     21  O   UNL     1     -33.755   6.642  -3.901  0.00  0.00    +0.000 OA
ATOM     22  C   UNL     1     -34.885   7.231  -3.307  0.00  0.00    +0.000 C 
ENDBRANCH   5  21
BRANCH   6  23
ATOM     23  O   UNL     1     -33.719   5.143  -6.148  0.00  0.00    +0.000 OA
ATOM     24  C   UNL     1     -35.068   4.682  -6.160  0.00  0.00    +0.000 C 
ENDBRANCH   6  23
TORSDOF 5
ENDMDL
