MODEL 1
REMARK VINA RESULT:      -5.7      0.000      0.000
REMARK  Name = 
REMARK  8 active torsions:
REMARK  status: ('A' for Active; 'I' for Inactive)
REMARK    1  A    between atoms: O_2  and  C_3
REMARK    2  A    between atoms: C_5  and  O_6
REMARK    3  A    between atoms: C_8  and  O_9
REMARK    4  A    between atoms: C_12  and  C_13
REMARK    5  A    between atoms: C_14  and  C_15
REMARK    6  A    between atoms: C_14  and  C_17
REMARK    7  A    between atoms: C_20  and  N_21
REMARK    8  A    between atoms: C_24  and  O_25
REMARK                            x       y       z     vdW  Elec       q    Type
REMARK                         _______ _______ _______ _____ _____    ______ ____
ROOT
ATOM      1  C   UNL     1     -24.940   8.806  -3.215  0.00  0.00    +0.000 C 
ATOM      2  C   UNL     1     -24.552   9.272  -4.398  0.00  0.00    +0.000 C 
ENDROOT
BRANCH   1   8
ATOM      3  C   UNL     1     -25.730   6.646  -2.467  0.00  0.00    +0.000 A 
ATOM      4  C   UNL     1     -25.561   5.613  -1.552  0.00  0.00    +0.000 A 
ATOM      5  C   UNL     1     -24.315   5.382  -0.992  0.00  0.00    +0.000 A 
ATOM      6  C   UNL     1     -23.221   6.074  -1.498  0.00  0.00    +0.000 A 
ATOM      7  C   UNL     1     -23.410   7.091  -2.424  0.00  0.00    +0.000 A 
ATOM      8  C   UNL     1     -24.663   7.389  -2.944  0.00  0.00    +0.000 A 
BRANCH   3  10
ATOM      9  C   UNL     1     -27.963   5.926  -2.918  0.00  0.00    +0.000 C 
ATOM     10  O   UNL     1     -27.051   7.006  -2.757  0.00  0.00    +0.000 OA
ENDBRANCH   3  10
BRANCH   5  11
ATOM     11  O   UNL     1     -24.171   4.910   0.317  0.00  0.00    +0.000 OA
ATOM     12  C   UNL     1     -24.583   5.674   1.443  0.00  0.00    +0.000 C 
ENDBRANCH   5  11
BRANCH   6  13
ATOM     13  O   UNL     1     -21.975   5.452  -1.379  0.00  0.00    +0.000 OA
ATOM     14  C   UNL     1     -20.983   6.128  -0.612  0.00  0.00    +0.000 C 
ENDBRANCH   6  13
ENDBRANCH   1   8
BRANCH   2  15
ATOM     15  C   UNL     1     -24.986   8.476  -5.554  0.00  0.00    +0.000 A 
ATOM     16  C   UNL     1     -24.144   8.152  -6.593  0.00  0.00    +0.000 A 
ATOM     17  C   UNL     1     -24.635   8.143  -7.891  0.00  0.00    +0.000 A 
ATOM     18  C   UNL     1     -25.975   8.374  -8.171  0.00  0.00    +0.000 A 
ATOM     19  C   UNL     1     -26.847   8.231  -7.100  0.00  0.00    +0.000 A 
ATOM     20  C   UNL     1     -26.345   8.330  -5.808  0.00  0.00    +0.000 A 
BRANCH  18  21
ATOM     21  N   UNL     1     -26.377   8.994  -9.393  0.00  0.00    +0.000 N 
ATOM     22  O   UNL     1     -26.450  10.233  -9.526  0.00  0.00    +0.000 OA
ATOM     23  O   UNL     1     -26.988   8.238 -10.378  0.00  0.00    +0.000 OA
ENDBRANCH  18  21
BRANCH  19  24
ATOM     24  O   UNL     1     -28.183   8.547  -7.374  0.00  0.00    +0.000 OA
ATOM     25  C   UNL     1     -28.807   9.622  -6.675  0.00  0.00    +0.000 C 
ENDBRANCH  19  24
ENDBRANCH   2  15
BRANCH   2  26
ATOM     26  C   UNL     1     -24.355  10.701  -4.491  0.00  0.00    +0.000 C 
ATOM     27  N   UNL     1     -24.505  11.821  -4.786  0.00  0.00    +0.000 NA
ENDBRANCH   2  26
TORSDOF 8
ENDMDL
MODEL 2
REMARK VINA RESULT:      -5.6     13.657     16.708
REMARK  Name = 
REMARK  8 active torsions:
REMARK  status: ('A' for Active; 'I' for Inactive)
REMARK    1  A    between atoms: O_2  and  C_3
REMARK    2  A    between atoms: C_5  and  O_6
REMARK    3  A    between atoms: C_8  and  O_9
REMARK    4  A    between atoms: C_12  and  C_13
REMARK    5  A    between atoms: C_14  and  C_15
REMARK    6  A    between atoms: C_14  and  C_17
REMARK    7  A    between atoms: C_20  and  N_21
REMARK    8  A    between atoms: C_24  and  O_25
REMARK                            x       y       z     vdW  Elec       q    Type
REMARK                         _______ _______ _______ _____ _____    ______ ____
ROOT
ATOM      1  C   UNL     1     -36.460  -4.247  -6.663  0.00  0.00    +0.000 C 
ATOM      2  C   UNL     1     -35.346  -4.936  -6.895  0.00  0.00    +0.000 C 
ENDROOT
BRANCH   1   8
ATOM      3  C   UNL     1     -36.938  -1.877  -6.699  0.00  0.00    +0.000 A 
ATOM      4  C   UNL     1     -37.777  -0.880  -7.184  0.00  0.00    +0.000 A 
ATOM      5  C   UNL     1     -38.446  -1.062  -8.385  0.00  0.00    +0.000 A 
ATOM      6  C   UNL     1     -38.119  -2.163  -9.166  0.00  0.00    +0.000 A 
ATOM      7  C   UNL     1     -37.264  -3.139  -8.670  0.00  0.00    +0.000 A 
ATOM      8  C   UNL     1     -36.641  -3.012  -7.436  0.00  0.00    +0.000 A 
BRANCH   3  10
ATOM      9  C   UNL     1     -37.593  -1.666  -4.412  0.00  0.00    +0.000 C 
ATOM     10  O   UNL     1     -36.540  -1.755  -5.364  0.00  0.00    +0.000 OA
ENDBRANCH   3  10
BRANCH   5  11
ATOM     11  O   UNL     1     -39.719  -0.528  -8.607  0.00  0.00    +0.000 OA
ATOM     12  C   UNL     1     -40.902  -1.199  -8.191  0.00  0.00    +0.000 C 
ENDBRANCH   5  11
BRANCH   6  13
ATOM     13  O   UNL     1     -38.317  -2.036 -10.544  0.00  0.00    +0.000 OA
ATOM     14  C   UNL     1     -39.302  -2.877 -11.139  0.00  0.00    +0.000 C 
ENDBRANCH   6  13
ENDBRANCH   1   8
BRANCH   2  15
ATOM     15  C   UNL     1     -34.105  -4.152  -6.831  0.00  0.00    +0.000 A 
ATOM     16  C   UNL     1     -33.122  -4.236  -7.791  0.00  0.00    +0.000 A 
ATOM     17  C   UNL     1     -31.789  -4.183  -7.409  0.00  0.00    +0.000 A 
ATOM     18  C   UNL     1     -31.411  -3.966  -6.091  0.00  0.00    +0.000 A 
ATOM     19  C   UNL     1     -32.391  -3.432  -5.264  0.00  0.00    +0.000 A 
ATOM     20  C   UNL     1     -33.725  -3.575  -5.625  0.00  0.00    +0.000 A 
BRANCH  18  21
ATOM     21  N   UNL     1     -30.205  -4.524  -5.568  0.00  0.00    +0.000 N 
ATOM     22  O   UNL     1     -30.178  -5.607  -4.949  0.00  0.00    +0.000 OA
ATOM     23  O   UNL     1     -29.072  -3.736  -5.467  0.00  0.00    +0.000 OA
ENDBRANCH  18  21
BRANCH  19  24
ATOM     24  O   UNL     1     -32.026  -3.296  -3.920  0.00  0.00    +0.000 OA
ATOM     25  C   UNL     1     -32.646  -4.122  -2.937  0.00  0.00    +0.000 C 
ENDBRANCH  19  24
ENDBRANCH   2  15
BRANCH   2  26
ATOM     26  C   UNL     1     -35.376  -6.340  -6.549  0.00  0.00    +0.000 C 
ATOM     27  N   UNL     1     -35.133  -7.356  -6.027  0.00  0.00    +0.000 NA
ENDBRANCH   2  26
TORSDOF 8
ENDMDL
MODEL 3
REMARK VINA RESULT:      -5.5     20.234     23.641
REMARK  Name = 
REMARK  8 active torsions:
REMARK  status: ('A' for Active; 'I' for Inactive)
REMARK    1  A    between atoms: O_2  and  C_3
REMARK    2  A    between atoms: C_5  and  O_6
REMARK    3  A    between atoms: C_8  and  O_9
REMARK    4  A    between atoms: C_12  and  C_13
REMARK    5  A    between atoms: C_14  and  C_15
REMARK    6  A    between atoms: C_14  and  C_17
REMARK    7  A    between atoms: C_20  and  N_21
REMARK    8  A    between atoms: C_24  and  O_25
REMARK                            x       y       z     vdW  Elec       q    Type
REMARK                         _______ _______ _______ _____ _____    ______ ____
ROOT
ATOM      1  C   UNL     1     -12.021  17.625 -20.048  0.00  0.00    +0.000 C 
ATOM      2  C   UNL     1     -12.789  17.687 -18.965  0.00  0.00    +0.000 C 
ENDROOT
BRANCH   1   8
ATOM      3  C   UNL     1     -11.727  19.138 -21.911  0.00  0.00    +0.000 A 
ATOM      4  C   UNL     1     -10.812  19.832 -22.697  0.00  0.00    +0.000 A 
ATOM      5  C   UNL     1      -9.584  20.198 -22.169  0.00  0.00    +0.000 A 
ATOM      6  C   UNL     1      -9.368  20.022 -20.808  0.00  0.00    +0.000 A 
ATOM      7  C   UNL     1     -10.302  19.342 -20.037  0.00  0.00    +0.000 A 
ATOM      8  C   UNL     1     -11.508  18.901 -20.564  0.00  0.00    +0.000 A 
BRANCH   3  10
ATOM      9  C   UNL     1     -13.085  19.081 -23.875  0.00  0.00    +0.000 C 
ATOM     10  O   UNL     1     -12.801  18.550 -22.587  0.00  0.00    +0.000 OA
ENDBRANCH   3  10
BRANCH   5  11
ATOM     11  O   UNL     1      -8.430  20.249 -22.956  0.00  0.00    +0.000 OA
ATOM     12  C   UNL     1      -8.263  21.211 -23.990  0.00  0.00    +0.000 C 
ENDBRANCH   5  11
BRANCH   6  13
ATOM     13  O   UNL     1      -8.450  20.885 -20.202  0.00  0.00    +0.000 OA
ATOM     14  C   UNL     1      -7.414  20.288 -19.426  0.00  0.00    +0.000 C 
ENDBRANCH   6  13
ENDBRANCH   1   8
BRANCH   2  15
ATOM     15  C   UNL     1     -13.899  18.646 -19.042  0.00  0.00    +0.000 A 
ATOM     16  C   UNL     1     -14.192  19.529 -18.028  0.00  0.00    +0.000 A 
ATOM     17  C   UNL     1     -15.518  19.811 -17.731  0.00  0.00    +0.000 A 
ATOM     18  C   UNL     1     -16.565  19.292 -18.480  0.00  0.00    +0.000 A 
ATOM     19  C   UNL     1     -16.224  18.807 -19.736  0.00  0.00    +0.000 A 
ATOM     20  C   UNL     1     -14.904  18.449 -19.982  0.00  0.00    +0.000 A 
BRANCH  18  21
ATOM     21  N   UNL     1     -17.831  19.013 -17.883  0.00  0.00    +0.000 N 
ATOM     22  O   UNL     1     -18.105  17.908 -17.371  0.00  0.00    +0.000 OA
ATOM     23  O   UNL     1     -18.903  19.857 -18.119  0.00  0.00    +0.000 OA
ENDBRANCH  18  21
BRANCH  19  24
ATOM     24  O   UNL     1     -17.271  18.210 -20.448  0.00  0.00    +0.000 OA
ATOM     25  C   UNL     1     -17.730  18.811 -21.657  0.00  0.00    +0.000 C 
ENDBRANCH  19  24
ENDBRANCH   2  15
BRANCH   2  26
ATOM     26  C   UNL     1     -12.882  16.479 -18.174  0.00  0.00    +0.000 C 
ATOM     27  N   UNL     1     -13.041  15.361 -17.879  0.00  0.00    +0.000 NA
ENDBRANCH   2  26
TORSDOF 8
ENDMDL
MODEL 4
REMARK VINA RESULT:      -5.3     18.602     20.653
REMARK  Name = 
REMARK  8 active torsions:
REMARK  status: ('A' for Active; 'I' for Inactive)
REMARK    1  A    between atoms: O_2  and  C_3
REMARK    2  A    between atoms: C_5  and  O_6
REMARK    3  A    between atoms: C_8  and  O_9
REMARK    4  A    between atoms: C_12  and  C_13
REMARK    5  A    between atoms: C_14  and  C_15
REMARK    6  A    between atoms: C_14  and  C_17
REMARK    7  A    between atoms: C_20  and  N_21
REMARK    8  A    between atoms: C_24  and  O_25
REMARK                            x       y       z     vdW  Elec       q    Type
REMARK                         _______ _______ _______ _____ _____    ______ ____
ROOT
ATOM      1  C   UNL     1     -19.269  -8.729   7.805  0.00  0.00    +0.000 C 
ATOM      2  C   UNL     1     -18.942  -7.762   8.657  0.00  0.00    +0.000 C 
ENDROOT
BRANCH   1   8
ATOM      3  C   UNL     1     -19.930  -8.832   5.482  0.00  0.00    +0.000 A 
ATOM      4  C   UNL     1     -19.634  -9.343   4.223  0.00  0.00    +0.000 A 
ATOM      5  C   UNL     1     -18.324  -9.653   3.893  0.00  0.00    +0.000 A 
ATOM      6  C   UNL     1     -17.312  -9.274   4.766  0.00  0.00    +0.000 A 
ATOM      7  C   UNL     1     -17.629  -8.749   6.012  0.00  0.00    +0.000 A 
ATOM      8  C   UNL     1     -18.941  -8.500   6.393  0.00  0.00    +0.000 A 
BRANCH   3  10
ATOM      9  C   UNL     1     -22.005 -10.015   5.550  0.00  0.00    +0.000 C 
ATOM     10  O   UNL     1     -21.281  -8.826   5.844  0.00  0.00    +0.000 OA
ENDBRANCH   3  10
BRANCH   5  11
ATOM     11  O   UNL     1     -18.011 -10.717   3.041  0.00  0.00    +0.000 OA
ATOM     12  C   UNL     1     -17.638 -11.997   3.536  0.00  0.00    +0.000 C 
ENDBRANCH   5  11
BRANCH   6  13
ATOM     13  O   UNL     1     -16.053  -9.043   4.206  0.00  0.00    +0.000 OA
ATOM     14  C   UNL     1     -15.555  -7.709   4.254  0.00  0.00    +0.000 C 
ENDBRANCH   6  13
ENDBRANCH   1   8
BRANCH   2  15
ATOM     15  C   UNL     1     -19.400  -6.418   8.278  0.00  0.00    +0.000 A 
ATOM     16  C   UNL     1     -18.601  -5.521   7.606  0.00  0.00    +0.000 A 
ATOM     17  C   UNL     1     -18.669  -4.174   7.928  0.00  0.00    +0.000 A 
ATOM     18  C   UNL     1     -19.579  -3.684   8.855  0.00  0.00    +0.000 A 
ATOM     19  C   UNL     1     -20.647  -4.521   9.148  0.00  0.00    +0.000 A 
ATOM     20  C   UNL     1     -20.523  -5.881   8.897  0.00  0.00    +0.000 A 
BRANCH  18  21
ATOM     21  N   UNL     1     -19.274  -2.541   9.655  0.00  0.00    +0.000 N 
ATOM     22  O   UNL     1     -18.613  -2.617  10.711  0.00  0.00    +0.000 OA
ATOM     23  O   UNL     1     -19.957  -1.355   9.446  0.00  0.00    +0.000 OA
ENDBRANCH  18  21
BRANCH  19  24
ATOM     24  O   UNL     1     -21.512  -4.054  10.145  0.00  0.00    +0.000 OA
ATOM     25  C   UNL     1     -22.897  -4.391  10.086  0.00  0.00    +0.000 C 
ENDBRANCH  19  24
ENDBRANCH   2  15
BRANCH   2  26
ATOM     26  C   UNL     1     -18.790  -8.150  10.041  0.00  0.00    +0.000 C 
ATOM     27  N   UNL     1     -18.828  -8.121  11.208  0.00  0.00    +0.000 NA
ENDBRANCH   2  26
TORSDOF 8
ENDMDL
MODEL 5
REMARK VINA RESULT:      -5.2     23.025     25.687
REMARK  Name = 
REMARK  8 active torsions:
REMARK  status: ('A' for Active; 'I' for Inactive)
REMARK    1  A    between atoms: O_2  and  C_3
REMARK    2  A    between atoms: C_5  and  O_6
REMARK    3  A    between atoms: C_8  and  O_9
REMARK    4  A    between atoms: C_12  and  C_13
REMARK    5  A    between atoms: C_14  and  C_15
REMARK    6  A    between atoms: C_14  and  C_17
REMARK    7  A    between atoms: C_20  and  N_21
REMARK    8  A    between atoms: C_24  and  O_25
REMARK                            x       y       z     vdW  Elec       q    Type
REMARK                         _______ _______ _______ _____ _____    ______ ____
ROOT
ATOM      1  C   UNL     1      -8.444  21.050 -21.306  0.00  0.00    +0.000 C 
ATOM      2  C   UNL     1      -9.256  20.197 -21.922  0.00  0.00    +0.000 C 
ENDROOT
BRANCH   1   8
ATOM      3  C   UNL     1      -8.343  21.661 -18.968  0.00  0.00    +0.000 A 
ATOM      4  C   UNL     1      -7.517  21.876 -17.870  0.00  0.00    +0.000 A 
ATOM      5  C   UNL     1      -6.301  21.218 -17.780  0.00  0.00    +0.000 A 
ATOM      6  C   UNL     1      -6.017  20.218 -18.702  0.00  0.00    +0.000 A 
ATOM      7  C   UNL     1      -6.863  20.008 -19.782  0.00  0.00    +0.000 A 
ATOM      8  C   UNL     1      -8.052  20.709 -19.932  0.00  0.00    +0.000 A 
BRANCH   3  10
ATOM      9  C   UNL     1     -10.556  22.317 -18.356  0.00  0.00    +0.000 C 
ATOM     10  O   UNL     1      -9.394  22.567 -19.138  0.00  0.00    +0.000 OA
ENDBRANCH   3  10
BRANCH   5  11
ATOM     11  O   UNL     1      -5.186  21.810 -17.177  0.00  0.00    +0.000 OA
ATOM     12  C   UNL     1      -5.210  22.266 -15.830  0.00  0.00    +0.000 C 
ENDBRANCH   5  11
BRANCH   6  13
ATOM     13  O   UNL     1      -5.144  19.209 -18.285  0.00  0.00    +0.000 OA
ATOM     14  C   UNL     1      -5.591  18.358 -17.233  0.00  0.00    +0.000 C 
ENDBRANCH   6  13
ENDBRANCH   1   8
BRANCH   2  15
ATOM     15  C   UNL     1     -10.460  19.827 -21.165  0.00  0.00    +0.000 A 
ATOM     16  C   UNL     1     -10.459  18.851 -20.194  0.00  0.00    +0.000 A 
ATOM     17  C   UNL     1     -11.553  18.007 -20.075  0.00  0.00    +0.000 A 
ATOM     18  C   UNL     1     -12.692  18.164 -20.854  0.00  0.00    +0.000 A 
ATOM     19  C   UNL     1     -12.836  19.403 -21.464  0.00  0.00    +0.000 A 
ATOM     20  C   UNL     1     -11.710  20.195 -21.651  0.00  0.00    +0.000 A 
BRANCH  18  21
ATOM     21  N   UNL     1     -13.490  17.041 -21.229  0.00  0.00    +0.000 N 
ATOM     22  O   UNL     1     -14.429  16.618 -20.524  0.00  0.00    +0.000 OA
ATOM     23  O   UNL     1     -13.057  16.198 -22.238  0.00  0.00    +0.000 OA
ENDBRANCH  18  21
BRANCH  19  24
ATOM     24  O   UNL     1     -13.942  19.523 -22.313  0.00  0.00    +0.000 OA
ATOM     25  C   UNL     1     -13.737  19.670 -23.716  0.00  0.00    +0.000 C 
ENDBRANCH  19  24
ENDBRANCH   2  15
BRANCH   2  26
ATOM     26  C   UNL     1      -9.249  20.234 -23.367  0.00  0.00    +0.000 C 
ATOM     27  N   UNL     1      -9.402  20.603 -24.465  0.00  0.00    +0.000 NA
ENDBRANCH   2  26
TORSDOF 8
ENDMDL
MODEL 6
REMARK VINA RESULT:      -5.2     30.273     32.735
REMARK  Name = 
REMARK  8 active torsions:
REMARK  status: ('A' for Active; 'I' for Inactive)
REMARK    1  A    between atoms: O_2  and  C_3
REMARK    2  A    between atoms: C_5  and  O_6
REMARK    3  A    between atoms: C_8  and  O_9
REMARK    4  A    between atoms: C_12  and  C_13
REMARK    5  A    between atoms: C_14  and  C_15
REMARK    6  A    between atoms: C_14  and  C_17
REMARK    7  A    between atoms: C_20  and  N_21
REMARK    8  A    between atoms: C_24  and  O_25
REMARK                            x       y       z     vdW  Elec       q    Type
REMARK                         _______ _______ _______ _____ _____    ______ ____
ROOT
ATOM      1  C   UNL     1      -8.823   6.913 -30.013  0.00  0.00    +0.000 C 
ATOM      2  C   UNL     1      -7.570   6.933 -29.571  0.00  0.00    +0.000 C 
ENDROOT
BRANCH   1   8
ATOM      3  C   UNL     1      -9.850   6.523 -32.167  0.00  0.00    +0.000 A 
ATOM      4  C   UNL     1     -10.770   5.764 -32.883  0.00  0.00    +0.000 A 
ATOM      5  C   UNL     1     -11.067   4.473 -32.476  0.00  0.00    +0.000 A 
ATOM      6  C   UNL     1     -10.301   3.903 -31.467  0.00  0.00    +0.000 A 
ATOM      7  C   UNL     1      -9.376   4.673 -30.776  0.00  0.00    +0.000 A 
ATOM      8  C   UNL     1      -9.115   5.993 -31.120  0.00  0.00    +0.000 A 
BRANCH   3  10
ATOM      9  C   UNL     1     -11.093   8.529 -32.537  0.00  0.00    +0.000 C 
ATOM     10  O   UNL     1      -9.824   7.893 -32.452  0.00  0.00    +0.000 OA
ENDBRANCH   3  10
BRANCH   5  11
ATOM     11  O   UNL     1     -12.342   3.923 -32.643  0.00  0.00    +0.000 OA
ATOM     12  C   UNL     1     -12.761   3.350 -33.875  0.00  0.00    +0.000 C 
ENDBRANCH   5  11
BRANCH   6  13
ATOM     13  O   UNL     1     -10.191   2.509 -31.474  0.00  0.00    +0.000 OA
ATOM     14  C   UNL     1      -8.880   1.962 -31.584  0.00  0.00    +0.000 C 
ENDBRANCH   6  13
ENDBRANCH   1   8
BRANCH   2  15
ATOM     15  C   UNL     1      -6.545   7.104 -30.610  0.00  0.00    +0.000 A 
ATOM     16  C   UNL     1      -5.734   6.075 -31.032  0.00  0.00    +0.000 A 
ATOM     17  C   UNL     1      -4.405   6.333 -31.334  0.00  0.00    +0.000 A 
ATOM     18  C   UNL     1      -3.881   7.619 -31.302  0.00  0.00    +0.000 A 
ATOM     19  C   UNL     1      -4.812   8.648 -31.333  0.00  0.00    +0.000 A 
ATOM     20  C   UNL     1      -6.119   8.384 -30.942  0.00  0.00    +0.000 A 
BRANCH  18  21
ATOM     21  N   UNL     1      -2.513   7.848 -30.966  0.00  0.00    +0.000 N 
ATOM     22  O   UNL     1      -1.643   8.102 -31.825  0.00  0.00    +0.000 OA
ATOM     23  O   UNL     1      -2.046   7.500 -29.710  0.00  0.00    +0.000 OA
ENDBRANCH  18  21
BRANCH  19  24
ATOM     24  O   UNL     1      -4.278   9.937 -31.216  0.00  0.00    +0.000 OA
ATOM     25  C   UNL     1      -4.157  10.755 -32.377  0.00  0.00    +0.000 C 
ENDBRANCH  19  24
ENDBRANCH   2  15
BRANCH   2  26
ATOM     26  C   UNL     1      -7.373   7.419 -28.223  0.00  0.00    +0.000 C 
ATOM     27  N   UNL     1      -6.894   7.608 -27.175  0.00  0.00    +0.000 NA
ENDBRANCH   2  26
TORSDOF 8
ENDMDL
MODEL 7
REMARK VINA RESULT:      -5.1     22.342     24.901
REMARK  Name = 
REMARK  8 active torsions:
REMARK  status: ('A' for Active; 'I' for Inactive)
REMARK    1  A    between atoms: O_2  and  C_3
REMARK    2  A    between atoms: C_5  and  O_6
REMARK    3  A    between atoms: C_8  and  O_9
REMARK    4  A    between atoms: C_12  and  C_13
REMARK    5  A    between atoms: C_14  and  C_15
REMARK    6  A    between atoms: C_14  and  C_17
REMARK    7  A    between atoms: C_20  and  N_21
REMARK    8  A    between atoms: C_24  and  O_25
REMARK                            x       y       z     vdW  Elec       q    Type
REMARK                         _______ _______ _______ _____ _____    ______ ____
ROOT
ATOM      1  C   UNL     1     -25.933  -7.520 -25.556  0.00  0.00    +0.000 C 
ATOM      2  C   UNL     1     -26.970  -6.688 -25.531  0.00  0.00    +0.000 C 
ENDROOT
BRANCH   1   8
ATOM      3  C   UNL     1     -23.710  -7.824 -24.654  0.00  0.00    +0.000 A 
ATOM      4  C   UNL     1     -22.930  -8.492 -23.717  0.00  0.00    +0.000 A 
ATOM      5  C   UNL     1     -23.501  -8.943 -22.537  0.00  0.00    +0.000 A 
ATOM      6  C   UNL     1     -24.801  -8.554 -22.238  0.00  0.00    +0.000 A 
ATOM      7  C   UNL     1     -25.557  -7.872 -23.181  0.00  0.00    +0.000 A 
ATOM      8  C   UNL     1     -25.027  -7.475 -24.401  0.00  0.00    +0.000 A 
BRANCH   3  10
ATOM      9  C   UNL     1     -22.528  -8.823 -26.473  0.00  0.00    +0.000 C 
ATOM     10  O   UNL     1     -23.150  -7.667 -25.926  0.00  0.00    +0.000 OA
ENDBRANCH   3  10
BRANCH   5  11
ATOM     11  O   UNL     1     -23.068 -10.116 -21.911  0.00  0.00    +0.000 OA
ATOM     12  C   UNL     1     -22.757 -11.293 -22.646  0.00  0.00    +0.000 C 
ENDBRANCH   5  11
BRANCH   6  13
ATOM     13  O   UNL     1     -25.140  -8.491 -20.883  0.00  0.00    +0.000 OA
ATOM     14  C   UNL     1     -25.797  -7.309 -20.433  0.00  0.00    +0.000 C 
ENDBRANCH   6  13
ENDBRANCH   1   8
BRANCH   2  15
ATOM     15  C   UNL     1     -26.635  -5.285 -25.247  0.00  0.00    +0.000 A 
ATOM     16  C   UNL     1     -27.076  -4.628 -24.121  0.00  0.00    +0.000 A 
ATOM     17  C   UNL     1     -27.448  -3.295 -24.211  0.00  0.00    +0.000 A 
ATOM     18  C   UNL     1     -27.315  -2.573 -25.389  0.00  0.00    +0.000 A 
ATOM     19  C   UNL     1     -26.457  -3.118 -26.335  0.00  0.00    +0.000 A 
ATOM     20  C   UNL     1     -26.167  -4.475 -26.275  0.00  0.00    +0.000 A 
BRANCH  18  21
ATOM     21  N   UNL     1     -28.217  -1.513 -25.710  0.00  0.00    +0.000 N 
ATOM     22  O   UNL     1     -28.154  -0.390 -25.170  0.00  0.00    +0.000 OA
ATOM     23  O   UNL     1     -29.379  -1.790 -26.410  0.00  0.00    +0.000 OA
ENDBRANCH  18  21
BRANCH  19  24
ATOM     24  O   UNL     1     -26.395  -2.426 -27.550  0.00  0.00    +0.000 OA
ATOM     25  C   UNL     1     -25.234  -1.658 -27.862  0.00  0.00    +0.000 C 
ENDBRANCH  19  24
ENDBRANCH   2  15
BRANCH   2  26
ATOM     26  C   UNL     1     -28.101  -7.047 -26.357  0.00  0.00    +0.000 C 
ATOM     27  N   UNL     1     -29.038  -6.957 -27.049  0.00  0.00    +0.000 NA
ENDBRANCH   2  26
TORSDOF 8
ENDMDL
MODEL 8
REMARK VINA RESULT:      -5.1      3.408      5.552
REMARK  Name = 
REMARK  8 active torsions:
REMARK  status: ('A' for Active; 'I' for Inactive)
REMARK    1  A    between atoms: O_2  and  C_3
REMARK    2  A    between atoms: C_5  and  O_6
REMARK    3  A    between atoms: C_8  and  O_9
REMARK    4  A    between atoms: C_12  and  C_13
REMARK    5  A    between atoms: C_14  and  C_15
REMARK    6  A    between atoms: C_14  and  C_17
REMARK    7  A    between atoms: C_20  and  N_21
REMARK    8  A    between atoms: C_24  and  O_25
REMARK                            x       y       z     vdW  Elec       q    Type
REMARK                         _______ _______ _______ _____ _____    ______ ____
ROOT
ATOM      1  C   UNL     1     -24.091   5.908   0.545  0.00  0.00    +0.000 C 
ATOM      2  C   UNL     1     -23.530   6.014  -0.656  0.00  0.00    +0.000 C 
ENDROOT
BRANCH   1   8
ATOM      3  C   UNL     1     -26.240   5.985   1.650  0.00  0.00    +0.000 A 
ATOM      4  C   UNL     1     -27.262   5.243   2.232  0.00  0.00    +0.000 A 
ATOM      5  C   UNL     1     -27.486   3.937   1.826  0.00  0.00    +0.000 A 
ATOM      6  C   UNL     1     -26.800   3.460   0.715  0.00  0.00    +0.000 A 
ATOM      7  C   UNL     1     -25.795   4.225   0.138  0.00  0.00    +0.000 A 
ATOM      8  C   UNL     1     -25.504   5.509   0.578  0.00  0.00    +0.000 A 
BRANCH   3  10
ATOM      9  C   UNL     1     -26.604   8.331   1.915  0.00  0.00    +0.000 C 
ATOM     10  O   UNL     1     -25.885   7.168   2.306  0.00  0.00    +0.000 OA
ENDBRANCH   3  10
BRANCH   5  11
ATOM     11  O   UNL     1     -27.940   2.956   2.714  0.00  0.00    +0.000 OA
ATOM     12  C   UNL     1     -28.493   3.286   3.982  0.00  0.00    +0.000 C 
ENDBRANCH   5  11
BRANCH   6  13
ATOM     13  O   UNL     1     -27.420   2.444  -0.017  0.00  0.00    +0.000 OA
ATOM     14  C   UNL     1     -26.961   2.231  -1.350  0.00  0.00    +0.000 C 
ENDBRANCH   6  13
ENDBRANCH   1   8
BRANCH   2  15
ATOM     15  C   UNL     1     -24.276   6.835  -1.621  0.00  0.00    +0.000 A 
ATOM     16  C   UNL     1     -24.410   6.487  -2.946  0.00  0.00    +0.000 A 
ATOM     17  C   UNL     1     -24.371   7.476  -3.918  0.00  0.00    +0.000 A 
ATOM     18  C   UNL     1     -24.280   8.823  -3.593  0.00  0.00    +0.000 A 
ATOM     19  C   UNL     1     -24.613   9.149  -2.285  0.00  0.00    +0.000 A 
ATOM     20  C   UNL     1     -24.561   8.159  -1.311  0.00  0.00    +0.000 A 
BRANCH  18  21
ATOM     21  N   UNL     1     -23.615   9.746  -4.454  0.00  0.00    +0.000 N 
ATOM     22  O   UNL     1     -24.090  10.105  -5.551  0.00  0.00    +0.000 OA
ATOM     23  O   UNL     1     -22.279  10.042  -4.243  0.00  0.00    +0.000 OA
ENDBRANCH  18  21
BRANCH  19  24
ATOM     24  O   UNL     1     -24.438  10.496  -1.944  0.00  0.00    +0.000 OA
ATOM     25  C   UNL     1     -23.425  10.856  -1.008  0.00  0.00    +0.000 C 
ENDBRANCH  19  24
ENDBRANCH   2  15
BRANCH   2  26
ATOM     26  C   UNL     1     -22.089   5.908  -0.703  0.00  0.00    +0.000 C 
ATOM     27  N   UNL     1     -20.977   5.784  -0.365  0.00  0.00    +0.000 NA
ENDBRANCH   2  26
TORSDOF 8
ENDMDL
MODEL 9
REMARK VINA RESULT:      -5.0      6.475      9.474
REMARK  Name = 
REMARK  8 active torsions:
REMARK  status: ('A' for Active; 'I' for Inactive)
REMARK    1  A    between atoms: O_2  and  C_3
REMARK    2  A    between atoms: C_5  and  O_6
REMARK    3  A    between atoms: C_8  and  O_9
REMARK    4  A    between atoms: C_12  and  C_13
REMARK    5  A    between atoms: C_14  and  C_15
REMARK    6  A    between atoms: C_14  and  C_17
REMARK    7  A    between atoms: C_20  and  N_21
REMARK    8  A    between atoms: C_24  and  O_25
REMARK                            x       y       z     vdW  Elec       q    Type
REMARK                         _______ _______ _______ _____ _____    ______ ____
ROOT
ATOM      1  C   UNL     1     -30.486   6.493  -9.646  0.00  0.00    +0.000 C 
ATOM      2  C   UNL     1     -29.545   6.154 -10.522  0.00  0.00    +0.000 C 
ENDROOT
BRANCH   1   8
ATOM      3  C   UNL     1     -31.067   8.663  -8.751  0.00  0.00    +0.000 A 
ATOM      4  C   UNL     1     -32.099   9.548  -8.459  0.00  0.00    +0.000 A 
ATOM      5  C   UNL     1     -33.277   9.502  -9.187  0.00  0.00    +0.000 A 
ATOM      6  C   UNL     1     -33.329   8.691 -10.314  0.00  0.00    +0.000 A 
ATOM      7  C   UNL     1     -32.281   7.827 -10.598  0.00  0.00    +0.000 A 
ATOM      8  C   UNL     1     -31.120   7.804  -9.837  0.00  0.00    +0.000 A 
BRANCH   3  10
ATOM      9  C   UNL     1     -30.470   8.534  -6.442  0.00  0.00    +0.000 C 
ATOM     10  O   UNL     1     -30.047   8.567  -7.799  0.00  0.00    +0.000 OA
ENDBRANCH   3  10
BRANCH   5  11
ATOM     11  O   UNL     1     -34.515   9.799  -8.607  0.00  0.00    +0.000 OA
ATOM     12  C   UNL     1     -35.219   8.857  -7.808  0.00  0.00    +0.000 C 
ENDBRANCH   5  11
BRANCH   6  13
ATOM     13  O   UNL     1     -34.217   9.075 -11.323  0.00  0.00    +0.000 OA
ATOM     14  C   UNL     1     -35.327   8.216 -11.573  0.00  0.00    +0.000 C 
ENDBRANCH   6  13
ENDBRANCH   1   8
BRANCH   2  15
ATOM     15  C   UNL     1     -28.495   7.161 -10.728  0.00  0.00    +0.000 A 
ATOM     16  C   UNL     1     -27.424   7.305  -9.875  0.00  0.00    +0.000 A 
ATOM     17  C   UNL     1     -26.948   8.576  -9.586  0.00  0.00    +0.000 A 
ATOM     18  C   UNL     1     -27.467   9.711 -10.194  0.00  0.00    +0.000 A 
ATOM     19  C   UNL     1     -28.194   9.491 -11.356  0.00  0.00    +0.000 A 
ATOM     20  C   UNL     1     -28.735   8.231 -11.582  0.00  0.00    +0.000 A 
BRANCH  18  21
ATOM     21  N   UNL     1     -27.496  10.965  -9.512  0.00  0.00    +0.000 N 
ATOM     22  O   UNL     1     -28.412  11.283  -8.726  0.00  0.00    +0.000 OA
ATOM     23  O   UNL     1     -26.667  11.992  -9.930  0.00  0.00    +0.000 OA
ENDBRANCH  18  21
BRANCH  19  24
ATOM     24  O   UNL     1     -28.783  10.632 -11.914  0.00  0.00    +0.000 OA
ATOM     25  C   UNL     1     -30.182  10.850 -11.751  0.00  0.00    +0.000 C 
ENDBRANCH  19  24
ENDBRANCH   2  15
BRANCH   2  26
ATOM     26  C   UNL     1     -29.279   4.740 -10.663  0.00  0.00    +0.000 C 
ATOM     27  N   UNL     1     -28.824   3.678 -10.493  0.00  0.00    +0.000 NA
ENDBRANCH   2  26
TORSDOF 8
ENDMDL
MODEL 10
REMARK VINA RESULT:      -5.0      3.613      5.454
REMARK  Name = 
REMARK  8 active torsions:
REMARK  status: ('A' for Active; 'I' for Inactive)
REMARK    1  A    between atoms: O_2  and  C_3
REMARK    2  A    between atoms: C_5  and  O_6
REMARK    3  A    between atoms: C_8  and  O_9
REMARK    4  A    between atoms: C_12  and  C_13
REMARK    5  A    between atoms: C_14  and  C_15
REMARK    6  A    between atoms: C_14  and  C_17
REMARK    7  A    between atoms: C_20  and  N_21
REMARK    8  A    between atoms: C_24  and  O_25
REMARK                            x       y       z     vdW  Elec       q    Type
REMARK                         _______ _______ _______ _____ _____    ______ ____
ROOT
ATOM      1  C   UNL     1     -23.165   6.393   0.397  0.00  0.00    +0.000 C 
ATOM      2  C   UNL     1     -22.489   6.340  -0.746  0.00  0.00    +0.000 C 
ENDROOT
BRANCH   1   8
ATOM      3  C   UNL     1     -25.358   7.296   0.863  0.00  0.00    +0.000 A 
ATOM      4  C   UNL     1     -26.584   7.080   1.484  0.00  0.00    +0.000 A 
ATOM      5  C   UNL     1     -27.046   5.787   1.671  0.00  0.00    +0.000 A 
ATOM      6  C   UNL     1     -26.357   4.742   1.067  0.00  0.00    +0.000 A 
ATOM      7  C   UNL     1     -25.143   4.982   0.437  0.00  0.00    +0.000 A 
ATOM      8  C   UNL     1     -24.625   6.264   0.304  0.00  0.00    +0.000 A 
BRANCH   3  10
ATOM      9  C   UNL     1     -25.004   9.217   2.239  0.00  0.00    +0.000 C 
ATOM     10  O   UNL     1     -24.827   8.585   0.977  0.00  0.00    +0.000 OA
ENDBRANCH   3  10
BRANCH   5  11
ATOM     11  O   UNL     1     -27.814   5.433   2.785  0.00  0.00    +0.000 OA
ATOM     12  C   UNL     1     -27.234   5.232   4.068  0.00  0.00    +0.000 C 
ENDBRANCH   5  11
BRANCH   6  13
ATOM     13  O   UNL     1     -27.098   3.599   0.755  0.00  0.00    +0.000 OA
ATOM     14  C   UNL     1     -27.163   3.222  -0.618  0.00  0.00    +0.000 C 
ENDBRANCH   6  13
ENDBRANCH   1   8
BRANCH   2  15
ATOM     15  C   UNL     1     -22.976   7.241  -1.800  0.00  0.00    +0.000 A 
ATOM     16  C   UNL     1     -22.670   8.583  -1.833  0.00  0.00    +0.000 A 
ATOM     17  C   UNL     1     -23.634   9.493  -2.240  0.00  0.00    +0.000 A 
ATOM     18  C   UNL     1     -24.881   9.087  -2.696  0.00  0.00    +0.000 A 
ATOM     19  C   UNL     1     -24.977   7.756  -3.082  0.00  0.00    +0.000 A 
ATOM     20  C   UNL     1     -24.050   6.847  -2.590  0.00  0.00    +0.000 A 
BRANCH  18  21
ATOM     21  N   UNL     1     -26.038   9.901  -2.502  0.00  0.00    +0.000 N 
ATOM     22  O   UNL     1     -26.756   9.817  -1.484  0.00  0.00    +0.000 OA
ATOM     23  O   UNL     1     -26.574  10.599  -3.571  0.00  0.00    +0.000 OA
ENDBRANCH  18  21
BRANCH  19  24
ATOM     24  O   UNL     1     -26.258   7.337  -3.460  0.00  0.00    +0.000 OA
ATOM     25  C   UNL     1     -26.971   6.424  -2.629  0.00  0.00    +0.000 C 
ENDBRANCH  19  24
ENDBRANCH   2  15
BRANCH   2  26
ATOM     26  C   UNL     1     -21.095   5.967  -0.651  0.00  0.00    +0.000 C 
ATOM     27  N   UNL     1     -19.991   5.899  -0.274  0.00  0.00    +0.000 NA
ENDBRANCH   2  26
TORSDOF 8
ENDMDL
