MODEL 1
REMARK VINA RESULT:      -7.6      0.000      0.000
REMARK  Name = 
REMARK  8 active torsions:
REMARK  status: ('A' for Active; 'I' for Inactive)
REMARK    1  A    between atoms: C_2  and  C_3
REMARK    2  A    between atoms: C_5  and  O_6
REMARK    3  A    between atoms: O_6  and  C_7
REMARK    4  A    between atoms: C_10  and  C_11
REMARK    5  A    between atoms: C_12  and  C_13
REMARK    6  A    between atoms: C_18  and  O_19
REMARK    7  A    between atoms: O_19  and  C_20
REMARK    8  A    between atoms: C_22  and  C_23
REMARK                            x       y       z     vdW  Elec       q    Type
REMARK                         _______ _______ _______ _____ _____    ______ ____
ROOT
ATOM      1  C   UNL     1     -25.262  11.387  -6.205  0.00  0.00    +0.000 C 
ATOM      2  C   UNL     1     -26.361  11.654  -5.485  0.00  0.00    +0.000 C 
ENDROOT
BRANCH   1   6
ATOM      3  C   UNL     1     -24.351   8.003  -4.217  0.00  0.00    +0.000 A 
ATOM      4  C   UNL     1     -23.685   9.118  -3.716  0.00  0.00    +0.000 A 
ATOM      5  C   UNL     1     -23.887  10.324  -4.381  0.00  0.00    +0.000 A 
ATOM      6  C   UNL     1     -24.527  10.294  -5.579  0.00  0.00    +0.000 A 
ATOM      7  C   UNL     1     -24.531   9.101  -6.285  0.00  0.00    +0.000 A 
ATOM      8  O   UNL     1     -24.807   9.120  -7.633  0.00  0.00    +0.000 OA
ATOM      9  C   UNL     1     -24.376   7.912  -5.581  0.00  0.00    +0.000 A 
BRANCH   3  10
ATOM     10  O   UNL     1     -24.596   6.890  -3.409  0.00  0.00    +0.000 OA
BRANCH  10  13
ATOM     11  C   UNL     1     -22.582   5.686  -0.684  0.00  0.00    +0.000 C 
ATOM     12  O   UNL     1     -22.998   6.215  -2.036  0.00  0.00    +0.000 OA
ATOM     13  C   UNL     1     -24.046   7.304  -1.971  0.00  0.00    +0.000 C 
ATOM     14  C   UNL     1     -25.102   6.142  -1.184  0.00  0.00    +0.000 C 
ATOM     15  O   UNL     1     -26.295   6.989  -1.559  0.00  0.00    +0.000 OA
ATOM     16  C   UNL     1     -24.823   7.091   0.214  0.00  0.00    +0.000 C 
ATOM     17  O   UNL     1     -25.070   5.948   1.210  0.00  0.00    +0.000 OA
ATOM     18  C   UNL     1     -23.113   6.942   0.417  0.00  0.00    +0.000 C 
ATOM     19  O   UNL     1     -22.726   8.109  -0.499  0.00  0.00    +0.000 OA
BRANCH  11  21
ATOM     20  O   UNL     1     -23.351   3.695  -0.379  0.00  0.00    +0.000 OA
ATOM     21  C   UNL     1     -23.861   4.620  -0.398  0.00  0.00    +0.000 C 
ENDBRANCH  11  21
ENDBRANCH  10  13
ENDBRANCH   3  10
ENDBRANCH   1   6
BRANCH   2  22
ATOM     22  C   UNL     1     -27.361  10.613  -5.656  0.00  0.00    +0.000 A 
ATOM     23  C   UNL     1     -27.502   9.509  -4.854  0.00  0.00    +0.000 A 
ATOM     24  C   UNL     1     -28.247   8.423  -5.303  0.00  0.00    +0.000 A 
ATOM     25  O   UNL     1     -28.353   7.303  -4.469  0.00  0.00    +0.000 OA
ATOM     26  C   UNL     1     -28.778   8.400  -6.591  0.00  0.00    +0.000 A 
ATOM     27  C   UNL     1     -28.313   9.333  -7.490  0.00  0.00    +0.000 A 
ATOM     28  C   UNL     1     -27.925  10.544  -6.922  0.00  0.00    +0.000 A 
BRANCH  27  29
ATOM     29  O   UNL     1     -28.842   9.482  -8.787  0.00  0.00    +0.000 OA
BRANCH  29  30
ATOM     30  C   UNL     1     -28.837   7.972  -9.289  0.00  0.00    +0.000 C 
ATOM     31  O   UNL     1     -27.953   8.332 -10.510  0.00  0.00    +0.000 OA
ATOM     32  C   UNL     1     -28.055   6.830 -10.177  0.00  0.00    +0.000 C 
ATOM     33  C   UNL     1     -28.759   6.496 -11.707  0.00  0.00    +0.000 C 
ATOM     34  O   UNL     1     -29.661   5.412 -11.118  0.00  0.00    +0.000 OA
ATOM     35  C   UNL     1     -30.041   7.659 -11.757  0.00  0.00    +0.000 C 
ATOM     36  O   UNL     1     -29.136   8.863 -12.082  0.00  0.00    +0.000 OA
ATOM     37  C   UNL     1     -30.360   8.128 -10.126  0.00  0.00    +0.000 C 
ATOM     38  O   UNL     1     -30.803   6.724  -9.712  0.00  0.00    +0.000 OA
BRANCH  32  39
ATOM     39  C   UNL     1     -26.518   6.569 -10.778  0.00  0.00    +0.000 C 
ATOM     40  O   UNL     1     -25.901   7.742 -10.297  0.00  0.00    +0.000 OA
ENDBRANCH  32  39
ENDBRANCH  29  30
ENDBRANCH  27  29
ENDBRANCH   2  22
TORSDOF 8
ENDMDL
MODEL 2
REMARK VINA RESULT:      -7.4      1.805      8.659
REMARK  Name = 
REMARK  8 active torsions:
REMARK  status: ('A' for Active; 'I' for Inactive)
REMARK    1  A    between atoms: C_2  and  C_3
REMARK    2  A    between atoms: C_5  and  O_6
REMARK    3  A    between atoms: O_6  and  C_7
REMARK    4  A    between atoms: C_10  and  C_11
REMARK    5  A    between atoms: C_12  and  C_13
REMARK    6  A    between atoms: C_18  and  O_19
REMARK    7  A    between atoms: O_19  and  C_20
REMARK    8  A    between atoms: C_22  and  C_23
REMARK                            x       y       z     vdW  Elec       q    Type
REMARK                         _______ _______ _______ _____ _____    ______ ____
ROOT
ATOM      1  C   UNL     1     -25.342  10.757  -4.558  0.00  0.00    +0.000 C 
ATOM      2  C   UNL     1     -25.403   9.809  -3.612  0.00  0.00    +0.000 C 
ENDROOT
BRANCH   1   6
ATOM      3  C   UNL     1     -25.836   8.453  -7.825  0.00  0.00    +0.000 A 
ATOM      4  C   UNL     1     -24.567   8.329  -7.267  0.00  0.00    +0.000 A 
ATOM      5  C   UNL     1     -24.281   9.138  -6.170  0.00  0.00    +0.000 A 
ATOM      6  C   UNL     1     -25.156  10.130  -5.862  0.00  0.00    +0.000 A 
ATOM      7  C   UNL     1     -26.000  10.588  -6.862  0.00  0.00    +0.000 A 
ATOM      8  O   UNL     1     -26.603  11.816  -6.721  0.00  0.00    +0.000 OA
ATOM      9  C   UNL     1     -26.303   9.734  -7.917  0.00  0.00    +0.000 A 
BRANCH   3  10
ATOM     10  O   UNL     1     -26.386   7.421  -8.592  0.00  0.00    +0.000 OA
BRANCH  10  13
ATOM     11  C   UNL     1     -29.780   7.845  -9.703  0.00  0.00    +0.000 C 
ATOM     12  O   UNL     1     -28.518   7.937  -8.877  0.00  0.00    +0.000 OA
ATOM     13  C   UNL     1     -27.267   8.162  -9.696  0.00  0.00    +0.000 C 
ATOM     14  C   UNL     1     -27.608   6.642 -10.506  0.00  0.00    +0.000 C 
ATOM     15  O   UNL     1     -26.165   6.563 -10.944  0.00  0.00    +0.000 OA
ATOM     16  C   UNL     1     -27.998   7.637 -11.844  0.00  0.00    +0.000 C 
ATOM     17  O   UNL     1     -28.971   6.637 -12.484  0.00  0.00    +0.000 OA
ATOM     18  C   UNL     1     -29.314   8.573 -11.227  0.00  0.00    +0.000 C 
ATOM     19  O   UNL     1     -28.460   9.683 -10.602  0.00  0.00    +0.000 OA
BRANCH  11  21
ATOM     20  O   UNL     1     -30.560   5.838  -9.817  0.00  0.00    +0.000 OA
ATOM     21  C   UNL     1     -29.664   6.238 -10.210  0.00  0.00    +0.000 C 
ENDBRANCH  11  21
ENDBRANCH  10  13
ENDBRANCH   3  10
ENDBRANCH   1   6
BRANCH   2  22
ATOM     22  C   UNL     1     -26.667   9.093  -3.676  0.00  0.00    +0.000 A 
ATOM     23  C   UNL     1     -27.910   9.666  -3.588  0.00  0.00    +0.000 A 
ATOM     24  C   UNL     1     -29.016   8.870  -3.315  0.00  0.00    +0.000 A 
ATOM     25  O   UNL     1     -30.268   9.489  -3.209  0.00  0.00    +0.000 OA
ATOM     26  C   UNL     1     -28.873   7.511  -3.039  0.00  0.00    +0.000 A 
ATOM     27  C   UNL     1     -27.608   7.045  -2.764  0.00  0.00    +0.000 A 
ATOM     28  C   UNL     1     -26.583   7.733  -3.410  0.00  0.00    +0.000 A 
BRANCH  27  29
ATOM     29  O   UNL     1     -27.315   5.681  -2.573  0.00  0.00    +0.000 OA
BRANCH  29  30
ATOM     30  C   UNL     1     -26.253   5.764  -1.391  0.00  0.00    +0.000 C 
ATOM     31  O   UNL     1     -25.157   5.103  -2.267  0.00  0.00    +0.000 OA
ATOM     32  C   UNL     1     -24.659   5.804  -0.988  0.00  0.00    +0.000 C 
ATOM     33  C   UNL     1     -24.032   4.329  -0.373  0.00  0.00    +0.000 C 
ATOM     34  O   UNL     1     -24.399   4.704   1.061  0.00  0.00    +0.000 OA
ATOM     35  C   UNL     1     -25.397   3.278  -0.541  0.00  0.00    +0.000 C 
ATOM     36  O   UNL     1     -25.244   3.077  -2.061  0.00  0.00    +0.000 OA
ATOM     37  C   UNL     1     -26.797   4.283  -0.647  0.00  0.00    +0.000 C 
ATOM     38  O   UNL     1     -26.611   4.849   0.761  0.00  0.00    +0.000 OA
BRANCH  32  39
ATOM     39  C   UNL     1     -23.205   6.167  -1.725  0.00  0.00    +0.000 C 
ATOM     40  O   UNL     1     -23.201   7.560  -1.509  0.00  0.00    +0.000 OA
ENDBRANCH  32  39
ENDBRANCH  29  30
ENDBRANCH  27  29
ENDBRANCH   2  22
TORSDOF 8
ENDMDL
MODEL 3
REMARK VINA RESULT:      -7.4      1.603      9.376
REMARK  Name = 
REMARK  8 active torsions:
REMARK  status: ('A' for Active; 'I' for Inactive)
REMARK    1  A    between atoms: C_2  and  C_3
REMARK    2  A    between atoms: C_5  and  O_6
REMARK    3  A    between atoms: O_6  and  C_7
REMARK    4  A    between atoms: C_10  and  C_11
REMARK    5  A    between atoms: C_12  and  C_13
REMARK    6  A    between atoms: C_18  and  O_19
REMARK    7  A    between atoms: O_19  and  C_20
REMARK    8  A    between atoms: C_22  and  C_23
REMARK                            x       y       z     vdW  Elec       q    Type
REMARK                         _______ _______ _______ _____ _____    ______ ____
ROOT
ATOM      1  C   UNL     1     -24.151  10.179  -5.515  0.00  0.00    +0.000 C 
ATOM      2  C   UNL     1     -23.318   9.372  -4.843  0.00  0.00    +0.000 C 
ENDROOT
BRANCH   1   6
ATOM      3  C   UNL     1     -27.406   8.911  -7.521  0.00  0.00    +0.000 A 
ATOM      4  C   UNL     1     -27.662   9.143  -6.173  0.00  0.00    +0.000 A 
ATOM      5  C   UNL     1     -26.580   9.523  -5.383  0.00  0.00    +0.000 A 
ATOM      6  C   UNL     1     -25.334   9.428  -5.918  0.00  0.00    +0.000 A 
ATOM      7  C   UNL     1     -25.148   8.560  -6.983  0.00  0.00    +0.000 A 
ATOM      8  O   UNL     1     -23.875   8.140  -7.291  0.00  0.00    +0.000 OA
ATOM      9  C   UNL     1     -26.242   8.243  -7.780  0.00  0.00    +0.000 A 
BRANCH   3  10
ATOM     10  O   UNL     1     -28.432   8.979  -8.468  0.00  0.00    +0.000 OA
BRANCH  10  13
ATOM     11  C   UNL     1     -28.146   7.983 -11.911  0.00  0.00    +0.000 C 
ATOM     12  O   UNL     1     -27.836   8.585 -10.561  0.00  0.00    +0.000 OA
ATOM     13  C   UNL     1     -28.213   7.700  -9.395  0.00  0.00    +0.000 C 
ATOM     14  C   UNL     1     -29.872   7.776  -9.966  0.00  0.00    +0.000 C 
ATOM     15  O   UNL     1     -30.352   7.361  -8.596  0.00  0.00    +0.000 OA
ATOM     16  C   UNL     1     -29.615   6.142 -10.410  0.00  0.00    +0.000 C 
ATOM     17  O   UNL     1     -30.657   6.138 -11.539  0.00  0.00    +0.000 OA
ATOM     18  C   UNL     1     -28.327   6.277 -11.555  0.00  0.00    +0.000 C 
ATOM     19  O   UNL     1     -27.183   6.219 -10.537  0.00  0.00    +0.000 OA
BRANCH  11  21
ATOM     20  O   UNL     1     -29.793   9.104 -12.734  0.00  0.00    +0.000 OA
ATOM     21  C   UNL     1     -29.794   8.341 -12.003  0.00  0.00    +0.000 C 
ENDBRANCH  11  21
ENDBRANCH  10  13
ENDBRANCH   3  10
ENDBRANCH   1   6
BRANCH   2  22
ATOM     22  C   UNL     1     -23.836   9.080  -3.516  0.00  0.00    +0.000 A 
ATOM     23  C   UNL     1     -23.998   9.995  -2.507  0.00  0.00    +0.000 A 
ATOM     24  C   UNL     1     -24.166   9.555  -1.199  0.00  0.00    +0.000 A 
ATOM     25  O   UNL     1     -24.306  10.516  -0.190  0.00  0.00    +0.000 OA
ATOM     26  C   UNL     1     -24.083   8.200  -0.881  0.00  0.00    +0.000 A 
ATOM     27  C   UNL     1     -23.553   7.353  -1.828  0.00  0.00    +0.000 A 
ATOM     28  C   UNL     1     -23.779   7.743  -3.146  0.00  0.00    +0.000 A 
BRANCH  27  29
ATOM     29  O   UNL     1     -23.511   5.954  -1.671  0.00  0.00    +0.000 OA
BRANCH  29  30
ATOM     30  C   UNL     1     -24.962   5.674  -1.083  0.00  0.00    +0.000 C 
ATOM     31  O   UNL     1     -24.372   4.959   0.159  0.00  0.00    +0.000 OA
ATOM     32  C   UNL     1     -25.855   5.367   0.264  0.00  0.00    +0.000 C 
ATOM     33  C   UNL     1     -26.335   3.730   0.456  0.00  0.00    +0.000 C 
ATOM     34  O   UNL     1     -27.620   3.954  -0.338  0.00  0.00    +0.000 OA
ATOM     35  C   UNL     1     -25.535   2.978  -0.883  0.00  0.00    +0.000 C 
ATOM     36  O   UNL     1     -24.136   2.974  -0.237  0.00  0.00    +0.000 OA
ATOM     37  C   UNL     1     -25.186   4.223  -2.027  0.00  0.00    +0.000 C 
ATOM     38  O   UNL     1     -26.663   4.537  -2.274  0.00  0.00    +0.000 OA
BRANCH  32  39
ATOM     39  C   UNL     1     -25.709   5.565   1.916  0.00  0.00    +0.000 C 
ATOM     40  O   UNL     1     -24.364   5.986   1.960  0.00  0.00    +0.000 OA
ENDBRANCH  32  39
ENDBRANCH  29  30
ENDBRANCH  27  29
ENDBRANCH   2  22
TORSDOF 8
ENDMDL
MODEL 4
REMARK VINA RESULT:      -7.3     16.003     20.421
REMARK  Name = 
REMARK  8 active torsions:
REMARK  status: ('A' for Active; 'I' for Inactive)
REMARK    1  A    between atoms: C_2  and  C_3
REMARK    2  A    between atoms: C_5  and  O_6
REMARK    3  A    between atoms: O_6  and  C_7
REMARK    4  A    between atoms: C_10  and  C_11
REMARK    5  A    between atoms: C_12  and  C_13
REMARK    6  A    between atoms: C_18  and  O_19
REMARK    7  A    between atoms: O_19  and  C_20
REMARK    8  A    between atoms: C_22  and  C_23
REMARK                            x       y       z     vdW  Elec       q    Type
REMARK                         _______ _______ _______ _____ _____    ______ ____
ROOT
ATOM      1  C   UNL     1     -37.891  -7.410  -9.173  0.00  0.00    +0.000 C 
ATOM      2  C   UNL     1     -37.670  -6.461  -8.253  0.00  0.00    +0.000 C 
ENDROOT
BRANCH   1   6
ATOM      3  C   UNL     1     -35.529  -8.311 -12.310  0.00  0.00    +0.000 A 
ATOM      4  C   UNL     1     -34.841  -8.315 -11.099  0.00  0.00    +0.000 A 
ATOM      5  C   UNL     1     -35.562  -7.951  -9.965  0.00  0.00    +0.000 A 
ATOM      6  C   UNL     1     -36.797  -7.413 -10.138  0.00  0.00    +0.000 A 
ATOM      7  C   UNL     1     -37.089  -6.833 -11.363  0.00  0.00    +0.000 A 
ATOM      8  O   UNL     1     -38.142  -5.953 -11.455  0.00  0.00    +0.000 OA
ATOM      9  C   UNL     1     -36.383  -7.258 -12.483  0.00  0.00    +0.000 A 
BRANCH   3  10
ATOM     10  O   UNL     1     -35.076  -9.067 -13.395  0.00  0.00    +0.000 OA
BRANCH  10  13
ATOM     11  C   UNL     1     -35.761 -12.510 -14.175  0.00  0.00    +0.000 C 
ATOM     12  O   UNL     1     -35.381 -11.257 -13.420  0.00  0.00    +0.000 OA
ATOM     13  C   UNL     1     -36.272 -10.072 -13.716  0.00  0.00    +0.000 C 
ATOM     14  C   UNL     1     -35.771 -10.202 -15.393  0.00  0.00    +0.000 C 
ATOM     15  O   UNL     1     -36.203  -8.774 -15.623  0.00  0.00    +0.000 OA
ATOM     16  C   UNL     1     -37.367 -10.765 -15.650  0.00  0.00    +0.000 C 
ATOM     17  O   UNL     1     -37.025 -11.593 -16.897  0.00  0.00    +0.000 OA
ATOM     18  C   UNL     1     -37.410 -12.190 -14.674  0.00  0.00    +0.000 C 
ATOM     19  O   UNL     1     -37.824 -11.497 -13.371  0.00  0.00    +0.000 OA
BRANCH  11  21
ATOM     20  O   UNL     1     -34.267 -12.892 -15.682  0.00  0.00    +0.000 OA
ATOM     21  C   UNL     1     -35.037 -12.168 -15.662  0.00  0.00    +0.000 C 
ENDBRANCH  11  21
ENDBRANCH  10  13
ENDBRANCH   3  10
ENDBRANCH   1   6
BRANCH   2  22
ATOM     22  C   UNL     1     -36.602  -6.853  -7.348  0.00  0.00    +0.000 A 
ATOM     23  C   UNL     1     -36.532  -8.043  -6.671  0.00  0.00    +0.000 A 
ATOM     24  C   UNL     1     -35.668  -8.169  -5.588  0.00  0.00    +0.000 A 
ATOM     25  O   UNL     1     -35.637  -9.392  -4.904  0.00  0.00    +0.000 OA
ATOM     26  C   UNL     1     -34.936  -7.078  -5.123  0.00  0.00    +0.000 A 
ATOM     27  C   UNL     1     -35.300  -5.828  -5.568  0.00  0.00    +0.000 A 
ATOM     28  C   UNL     1     -35.838  -5.804  -6.853  0.00  0.00    +0.000 A 
BRANCH  27  29
ATOM     29  O   UNL     1     -34.579  -4.660  -5.256  0.00  0.00    +0.000 OA
BRANCH  29  30
ATOM     30  C   UNL     1     -33.092  -5.133  -5.567  0.00  0.00    +0.000 C 
ATOM     31  O   UNL     1     -32.589  -4.609  -4.197  0.00  0.00    +0.000 OA
ATOM     32  C   UNL     1     -31.638  -5.571  -4.936  0.00  0.00    +0.000 C 
ATOM     33  C   UNL     1     -30.419  -4.365  -5.023  0.00  0.00    +0.000 C 
ATOM     34  O   UNL     1     -29.961  -4.846  -6.399  0.00  0.00    +0.000 OA
ATOM     35  C   UNL     1     -31.301  -3.031  -5.686  0.00  0.00    +0.000 C 
ATOM     36  O   UNL     1     -32.019  -2.661  -4.374  0.00  0.00    +0.000 OA
ATOM     37  C   UNL     1     -32.699  -3.686  -6.460  0.00  0.00    +0.000 C 
ATOM     38  O   UNL     1     -31.878  -4.467  -7.487  0.00  0.00    +0.000 OA
BRANCH  32  39
ATOM     39  C   UNL     1     -31.039  -6.135  -3.482  0.00  0.00    +0.000 C 
ATOM     40  O   UNL     1     -31.004  -7.510  -3.788  0.00  0.00    +0.000 OA
ENDBRANCH  32  39
ENDBRANCH  29  30
ENDBRANCH  27  29
ENDBRANCH   2  22
TORSDOF 8
ENDMDL
MODEL 5
REMARK VINA RESULT:      -7.2      2.777      5.703
REMARK  Name = 
REMARK  8 active torsions:
REMARK  status: ('A' for Active; 'I' for Inactive)
REMARK    1  A    between atoms: C_2  and  C_3
REMARK    2  A    between atoms: C_5  and  O_6
REMARK    3  A    between atoms: O_6  and  C_7
REMARK    4  A    between atoms: C_10  and  C_11
REMARK    5  A    between atoms: C_12  and  C_13
REMARK    6  A    between atoms: C_18  and  O_19
REMARK    7  A    between atoms: O_19  and  C_20
REMARK    8  A    between atoms: C_22  and  C_23
REMARK                            x       y       z     vdW  Elec       q    Type
REMARK                         _______ _______ _______ _____ _____    ______ ____
ROOT
ATOM      1  C   UNL     1     -27.873   8.349 -11.825  0.00  0.00    +0.000 C 
ATOM      2  C   UNL     1     -29.207   8.333 -11.689  0.00  0.00    +0.000 C 
ENDROOT
BRANCH   1   6
ATOM      3  C   UNL     1     -26.847   8.247  -7.930  0.00  0.00    +0.000 A 
ATOM      4  C   UNL     1     -27.293   9.501  -8.336  0.00  0.00    +0.000 A 
ATOM      5  C   UNL     1     -27.609   9.651  -9.684  0.00  0.00    +0.000 A 
ATOM      6  C   UNL     1     -27.259   8.653 -10.537  0.00  0.00    +0.000 A 
ATOM      7  C   UNL     1     -26.239   7.796 -10.153  0.00  0.00    +0.000 A 
ATOM      8  O   UNL     1     -25.596   7.046 -11.110  0.00  0.00    +0.000 OA
ATOM      9  C   UNL     1     -25.985   7.634  -8.795  0.00  0.00    +0.000 A 
BRANCH   3  10
ATOM     10  O   UNL     1     -26.940   7.850  -6.593  0.00  0.00    +0.000 OA
BRANCH  10  13
ATOM     11  C   UNL     1     -24.133   8.081  -4.357  0.00  0.00    +0.000 C 
ATOM     12  O   UNL     1     -24.963   7.870  -5.601  0.00  0.00    +0.000 OA
ATOM     13  C   UNL     1     -26.049   8.905  -5.794  0.00  0.00    +0.000 C 
ATOM     14  C   UNL     1     -26.724   8.380  -4.261  0.00  0.00    +0.000 C 
ATOM     15  O   UNL     1     -28.050   8.991  -4.647  0.00  0.00    +0.000 OA
ATOM     16  C   UNL     1     -26.154   9.889  -3.687  0.00  0.00    +0.000 C 
ATOM     17  O   UNL     1     -26.000   9.435  -2.228  0.00  0.00    +0.000 OA
ATOM     18  C   UNL     1     -24.450   9.754  -3.944  0.00  0.00    +0.000 C 
ATOM     19  O   UNL     1     -24.451  10.262  -5.391  0.00  0.00    +0.000 OA
BRANCH  11  21
ATOM     20  O   UNL     1     -24.595   6.572  -2.887  0.00  0.00    +0.000 OA
ATOM     21  C   UNL     1     -25.171   7.397  -3.213  0.00  0.00    +0.000 C 
ENDBRANCH  11  21
ENDBRANCH  10  13
ENDBRANCH   3  10
ENDBRANCH   1   6
BRANCH   2  22
ATOM     22  C   UNL     1     -29.642   7.147 -10.970  0.00  0.00    +0.000 A 
ATOM     23  C   UNL     1     -28.902   6.004 -10.802  0.00  0.00    +0.000 A 
ATOM     24  C   UNL     1     -29.532   4.828 -10.409  0.00  0.00    +0.000 A 
ATOM     25  O   UNL     1     -28.751   3.674 -10.268  0.00  0.00    +0.000 OA
ATOM     26  C   UNL     1     -30.917   4.768 -10.269  0.00  0.00    +0.000 A 
ATOM     27  C   UNL     1     -31.658   5.799 -10.799  0.00  0.00    +0.000 A 
ATOM     28  C   UNL     1     -31.015   7.035 -10.800  0.00  0.00    +0.000 A 
BRANCH  27  29
ATOM     29  O   UNL     1     -33.052   5.909 -10.634  0.00  0.00    +0.000 OA
BRANCH  29  30
ATOM     30  C   UNL     1     -33.145   7.203  -9.713  0.00  0.00    +0.000 C 
ATOM     31  O   UNL     1     -33.707   6.376  -8.528  0.00  0.00    +0.000 OA
ATOM     32  C   UNL     1     -33.189   7.784  -8.175  0.00  0.00    +0.000 C 
ATOM     33  C   UNL     1     -34.744   8.264  -7.628  0.00  0.00    +0.000 C 
ATOM     34  O   UNL     1     -34.553   9.686  -8.155  0.00  0.00    +0.000 OA
ATOM     35  C   UNL     1     -35.737   7.807  -8.971  0.00  0.00    +0.000 C 
ATOM     36  O   UNL     1     -35.740   6.301  -8.647  0.00  0.00    +0.000 OA
ATOM     37  C   UNL     1     -34.700   7.679 -10.345  0.00  0.00    +0.000 C 
ATOM     38  O   UNL     1     -34.327   9.162 -10.317  0.00  0.00    +0.000 OA
BRANCH  32  39
ATOM     39  C   UNL     1     -32.761   7.269  -6.645  0.00  0.00    +0.000 C 
ATOM     40  O   UNL     1     -31.455   7.797  -6.603  0.00  0.00    +0.000 OA
ENDBRANCH  32  39
ENDBRANCH  29  30
ENDBRANCH  27  29
ENDBRANCH   2  22
TORSDOF 8
ENDMDL
MODEL 6
REMARK VINA RESULT:      -7.0     12.727     17.145
REMARK  Name = 
REMARK  8 active torsions:
REMARK  status: ('A' for Active; 'I' for Inactive)
REMARK    1  A    between atoms: C_2  and  C_3
REMARK    2  A    between atoms: C_5  and  O_6
REMARK    3  A    between atoms: O_6  and  C_7
REMARK    4  A    between atoms: C_10  and  C_11
REMARK    5  A    between atoms: C_12  and  C_13
REMARK    6  A    between atoms: C_18  and  O_19
REMARK    7  A    between atoms: O_19  and  C_20
REMARK    8  A    between atoms: C_22  and  C_23
REMARK                            x       y       z     vdW  Elec       q    Type
REMARK                         _______ _______ _______ _____ _____    ______ ____
ROOT
ATOM      1  C   UNL     1     -25.153  -1.519   6.290  0.00  0.00    +0.000 C 
ATOM      2  C   UNL     1     -25.219  -1.177   7.585  0.00  0.00    +0.000 C 
ENDROOT
BRANCH   1   6
ATOM      3  C   UNL     1     -28.000  -4.359   6.051  0.00  0.00    +0.000 A 
ATOM      4  C   UNL     1     -26.927  -4.739   6.852  0.00  0.00    +0.000 A 
ATOM      5  C   UNL     1     -25.862  -3.846   6.943  0.00  0.00    +0.000 A 
ATOM      6  C   UNL     1     -25.840  -2.790   6.089  0.00  0.00    +0.000 A 
ATOM      7  C   UNL     1     -26.568  -2.887   4.913  0.00  0.00    +0.000 A 
ATOM      8  O   UNL     1     -26.271  -2.043   3.868  0.00  0.00    +0.000 OA
ATOM      9  C   UNL     1     -27.655  -3.753   4.876  0.00  0.00    +0.000 A 
BRANCH   3  10
ATOM     10  O   UNL     1     -29.267  -4.918   6.237  0.00  0.00    +0.000 OA
BRANCH  10  13
ATOM     11  C   UNL     1     -30.605  -6.615   9.111  0.00  0.00    +0.000 C 
ATOM     12  O   UNL     1     -29.687  -6.212   7.981  0.00  0.00    +0.000 OA
ATOM     13  C   UNL     1     -29.577  -4.716   7.788  0.00  0.00    +0.000 C 
ATOM     14  C   UNL     1     -31.306  -4.698   7.485  0.00  0.00    +0.000 C 
ATOM     15  O   UNL     1     -31.162  -3.363   6.796  0.00  0.00    +0.000 OA
ATOM     16  C   UNL     1     -31.395  -3.938   9.017  0.00  0.00    +0.000 C 
ATOM     17  O   UNL     1     -32.825  -4.407   9.324  0.00  0.00    +0.000 OA
ATOM     18  C   UNL     1     -30.738  -5.149  10.061  0.00  0.00    +0.000 C 
ATOM     19  O   UNL     1     -29.269  -4.739   9.900  0.00  0.00    +0.000 OA
BRANCH  11  21
ATOM     20  O   UNL     1     -32.400  -7.485   8.290  0.00  0.00    +0.000 OA
ATOM     21  C   UNL     1     -32.093  -6.474   8.323  0.00  0.00    +0.000 C 
ENDBRANCH  11  21
ENDBRANCH  10  13
ENDBRANCH   3  10
ENDBRANCH   1   6
BRANCH   2  22
ATOM     22  C   UNL     1     -26.560  -0.742   7.940  0.00  0.00    +0.000 A 
ATOM     23  C   UNL     1     -27.293  -1.216   8.998  0.00  0.00    +0.000 A 
ATOM     24  C   UNL     1     -28.665  -0.992   9.039  0.00  0.00    +0.000 A 
ATOM     25  O   UNL     1     -29.388  -1.508  10.123  0.00  0.00    +0.000 OA
ATOM     26  C   UNL     1     -29.324  -0.372   7.979  0.00  0.00    +0.000 A 
ATOM     27  C   UNL     1     -28.644  -0.250   6.789  0.00  0.00    +0.000 A 
ATOM     28  C   UNL     1     -27.263  -0.116   6.920  0.00  0.00    +0.000 A 
BRANCH  27  29
ATOM     29  O   UNL     1     -29.157   0.446   5.677  0.00  0.00    +0.000 OA
BRANCH  29  30
ATOM     30  C   UNL     1     -29.684   1.776   6.373  0.00  0.00    +0.000 C 
ATOM     31  O   UNL     1     -31.090   1.604   5.743  0.00  0.00    +0.000 OA
ATOM     32  C   UNL     1     -30.997   2.610   6.907  0.00  0.00    +0.000 C 
ATOM     33  C   UNL     1     -31.499   3.898   5.889  0.00  0.00    +0.000 C 
ATOM     34  O   UNL     1     -30.584   4.893   6.601  0.00  0.00    +0.000 OA
ATOM     35  C   UNL     1     -30.413   3.722   4.552  0.00  0.00    +0.000 C 
ATOM     36  O   UNL     1     -31.144   2.520   3.924  0.00  0.00    +0.000 OA
ATOM     37  C   UNL     1     -29.058   2.815   5.119  0.00  0.00    +0.000 C 
ATOM     38  O   UNL     1     -28.644   3.887   6.127  0.00  0.00    +0.000 OA
BRANCH  32  39
ATOM     39  C   UNL     1     -32.576   2.283   7.347  0.00  0.00    +0.000 C 
ATOM     40  O   UNL     1     -32.332   1.762   8.634  0.00  0.00    +0.000 OA
ENDBRANCH  32  39
ENDBRANCH  29  30
ENDBRANCH  27  29
ENDBRANCH   2  22
TORSDOF 8
ENDMDL
MODEL 7
REMARK VINA RESULT:      -7.0     16.643     19.702
REMARK  Name = 
REMARK  8 active torsions:
REMARK  status: ('A' for Active; 'I' for Inactive)
REMARK    1  A    between atoms: C_2  and  C_3
REMARK    2  A    between atoms: C_5  and  O_6
REMARK    3  A    between atoms: O_6  and  C_7
REMARK    4  A    between atoms: C_10  and  C_11
REMARK    5  A    between atoms: C_12  and  C_13
REMARK    6  A    between atoms: C_18  and  O_19
REMARK    7  A    between atoms: O_19  and  C_20
REMARK    8  A    between atoms: C_22  and  C_23
REMARK                            x       y       z     vdW  Elec       q    Type
REMARK                         _______ _______ _______ _____ _____    ______ ____
ROOT
ATOM      1  C   UNL     1     -16.446  21.558 -18.036  0.00  0.00    +0.000 C 
ATOM      2  C   UNL     1     -17.377  22.196 -18.759  0.00  0.00    +0.000 C 
ENDROOT
BRANCH   1   6
ATOM      3  C   UNL     1     -18.533  18.279 -16.974  0.00  0.00    +0.000 A 
ATOM      4  C   UNL     1     -18.944  19.423 -16.295  0.00  0.00    +0.000 A 
ATOM      5  C   UNL     1     -18.237  20.595 -16.548  0.00  0.00    +0.000 A 
ATOM      6  C   UNL     1     -17.079  20.502 -17.253  0.00  0.00    +0.000 A 
ATOM      7  C   UNL     1     -16.430  19.278 -17.281  0.00  0.00    +0.000 A 
ATOM      8  O   UNL     1     -15.100  19.231 -17.631  0.00  0.00    +0.000 OA
ATOM      9  C   UNL     1     -17.179  18.124 -17.072  0.00  0.00    +0.000 A 
BRANCH   3  10
ATOM     10  O   UNL     1     -19.404  17.202 -17.159  0.00  0.00    +0.000 OA
BRANCH  10  13
ATOM     11  C   UNL     1     -21.271  15.708 -14.473  0.00  0.00    +0.000 C 
ATOM     12  O   UNL     1     -20.155  16.356 -15.258  0.00  0.00    +0.000 OA
ATOM     13  C   UNL     1     -20.613  17.482 -16.157  0.00  0.00    +0.000 C 
ATOM     14  C   UNL     1     -21.627  16.312 -16.987  0.00  0.00    +0.000 C 
ATOM     15  O   UNL     1     -21.701  17.236 -18.178  0.00  0.00    +0.000 OA
ATOM     16  C   UNL     1     -22.915  17.139 -16.219  0.00  0.00    +0.000 C 
ATOM     17  O   UNL     1     -23.871  15.936 -16.216  0.00  0.00    +0.000 OA
ATOM     18  C   UNL     1     -22.554  16.899 -14.546  0.00  0.00    +0.000 C 
ATOM     19  O   UNL     1     -21.632  18.114 -14.392  0.00  0.00    +0.000 OA
BRANCH  11  21
ATOM     20  O   UNL     1     -21.664  13.735 -15.249  0.00  0.00    +0.000 OA
ATOM     21  C   UNL     1     -21.888  14.681 -15.664  0.00  0.00    +0.000 C 
ENDBRANCH  11  21
ENDBRANCH  10  13
ENDBRANCH   3  10
ENDBRANCH   1   6
BRANCH   2  22
ATOM     22  C   UNL     1     -17.834  21.369 -19.864  0.00  0.00    +0.000 A 
ATOM     23  C   UNL     1     -19.030  20.699 -19.913  0.00  0.00    +0.000 A 
ATOM     24  C   UNL     1     -19.211  19.681 -20.842  0.00  0.00    +0.000 A 
ATOM     25  O   UNL     1     -20.436  19.002 -20.850  0.00  0.00    +0.000 OA
ATOM     26  C   UNL     1     -18.166  19.267 -21.666  0.00  0.00    +0.000 A 
ATOM     27  C   UNL     1     -16.895  19.685 -21.344  0.00  0.00    +0.000 A 
ATOM     28  C   UNL     1     -16.834  20.929 -20.720  0.00  0.00    +0.000 A 
BRANCH  27  29
ATOM     29  O   UNL     1     -15.771  19.424 -22.152  0.00  0.00    +0.000 OA
BRANCH  29  30
ATOM     30  C   UNL     1     -14.728  18.920 -21.062  0.00  0.00    +0.000 C 
ATOM     31  O   UNL     1     -13.550  19.599 -21.807  0.00  0.00    +0.000 OA
ATOM     32  C   UNL     1     -13.264  19.169 -20.355  0.00  0.00    +0.000 C 
ATOM     33  C   UNL     1     -12.021  18.104 -20.872  0.00  0.00    +0.000 C 
ATOM     34  O   UNL     1     -12.365  17.084 -19.788  0.00  0.00    +0.000 OA
ATOM     35  C   UNL     1     -12.835  17.198 -22.104  0.00  0.00    +0.000 C 
ATOM     36  O   UNL     1     -12.765  18.306 -23.173  0.00  0.00    +0.000 OA
ATOM     37  C   UNL     1     -14.529  17.357 -21.811  0.00  0.00    +0.000 C 
ATOM     38  O   UNL     1     -14.455  16.649 -20.457  0.00  0.00    +0.000 OA
BRANCH  32  39
ATOM     39  C   UNL     1     -12.174  20.423 -20.174  0.00  0.00    +0.000 C 
ATOM     40  O   UNL     1     -12.550  20.842 -18.882  0.00  0.00    +0.000 OA
ENDBRANCH  32  39
ENDBRANCH  29  30
ENDBRANCH  27  29
ENDBRANCH   2  22
TORSDOF 8
ENDMDL
MODEL 8
REMARK VINA RESULT:      -7.0      2.868      8.490
REMARK  Name = 
REMARK  8 active torsions:
REMARK  status: ('A' for Active; 'I' for Inactive)
REMARK    1  A    between atoms: C_2  and  C_3
REMARK    2  A    between atoms: C_5  and  O_6
REMARK    3  A    between atoms: O_6  and  C_7
REMARK    4  A    between atoms: C_10  and  C_11
REMARK    5  A    between atoms: C_12  and  C_13
REMARK    6  A    between atoms: C_18  and  O_19
REMARK    7  A    between atoms: O_19  and  C_20
REMARK    8  A    between atoms: C_22  and  C_23
REMARK                            x       y       z     vdW  Elec       q    Type
REMARK                         _______ _______ _______ _____ _____    ______ ____
ROOT
ATOM      1  C   UNL     1     -27.886   7.214 -11.943  0.00  0.00    +0.000 C 
ATOM      2  C   UNL     1     -27.242   7.601 -10.833  0.00  0.00    +0.000 C 
ENDROOT
BRANCH   1   6
ATOM      3  C   UNL     1     -31.127   5.838  -9.985  0.00  0.00    +0.000 A 
ATOM      4  C   UNL     1     -30.213   4.832 -10.287  0.00  0.00    +0.000 A 
ATOM      5  C   UNL     1     -29.089   5.202 -11.022  0.00  0.00    +0.000 A 
ATOM      6  C   UNL     1     -29.068   6.443 -11.574  0.00  0.00    +0.000 A 
ATOM      7  C   UNL     1     -30.279   7.082 -11.787  0.00  0.00    +0.000 A 
ATOM      8  O   UNL     1     -30.339   8.130 -12.677  0.00  0.00    +0.000 OA
ATOM      9  C   UNL     1     -31.367   6.721 -11.000  0.00  0.00    +0.000 A 
BRANCH   3  10
ATOM     10  O   UNL     1     -32.011   5.705  -8.911  0.00  0.00    +0.000 OA
BRANCH  10  13
ATOM     11  C   UNL     1     -31.691   8.423  -6.579  0.00  0.00    +0.000 C 
ATOM     12  O   UNL     1     -31.382   7.422  -7.667  0.00  0.00    +0.000 OA
ATOM     13  C   UNL     1     -32.528   7.186  -8.625  0.00  0.00    +0.000 C 
ATOM     14  C   UNL     1     -33.472   6.638  -7.250  0.00  0.00    +0.000 C 
ATOM     15  O   UNL     1     -34.410   5.922  -8.192  0.00  0.00    +0.000 OA
ATOM     16  C   UNL     1     -34.322   8.109  -7.463  0.00  0.00    +0.000 C 
ATOM     17  O   UNL     1     -34.769   8.226  -5.998  0.00  0.00    +0.000 OA
ATOM     18  C   UNL     1     -33.080   9.284  -7.213  0.00  0.00    +0.000 C 
ATOM     19  O   UNL     1     -32.579   9.320  -8.662  0.00  0.00    +0.000 OA
BRANCH  11  21
ATOM     20  O   UNL     1     -31.901   7.422  -4.681  0.00  0.00    +0.000 OA
ATOM     21  C   UNL     1     -32.546   7.425  -5.518  0.00  0.00    +0.000 C 
ENDBRANCH  11  21
ENDBRANCH  10  13
ENDBRANCH   3  10
ENDBRANCH   1   6
BRANCH   2  22
ATOM     22  C   UNL     1     -27.971   8.657 -10.150  0.00  0.00    +0.000 A 
ATOM     23  C   UNL     1     -28.188   9.919 -10.643  0.00  0.00    +0.000 A 
ATOM     24  C   UNL     1     -28.584  10.935  -9.781  0.00  0.00    +0.000 A 
ATOM     25  O   UNL     1     -28.775  12.217 -10.313  0.00  0.00    +0.000 OA
ATOM     26  C   UNL     1     -28.677  10.717  -8.408  0.00  0.00    +0.000 A 
ATOM     27  C   UNL     1     -28.101   9.575  -7.902  0.00  0.00    +0.000 A 
ATOM     28  C   UNL     1     -28.096   8.491  -8.778  0.00  0.00    +0.000 A 
BRANCH  27  29
ATOM     29  O   UNL     1     -28.215   9.187  -6.553  0.00  0.00    +0.000 OA
BRANCH  29  30
ATOM     30  C   UNL     1     -26.789   9.616  -5.995  0.00  0.00    +0.000 C 
ATOM     31  O   UNL     1     -26.342   8.138  -5.865  0.00  0.00    +0.000 OA
ATOM     32  C   UNL     1     -25.215   9.186  -5.794  0.00  0.00    +0.000 C 
ATOM     33  C   UNL     1     -24.798   8.690  -4.204  0.00  0.00    +0.000 C 
ATOM     34  O   UNL     1     -24.455  10.119  -3.786  0.00  0.00    +0.000 OA
ATOM     35  C   UNL     1     -26.338   8.736  -3.415  0.00  0.00    +0.000 C 
ATOM     36  O   UNL     1     -26.859   7.422  -4.029  0.00  0.00    +0.000 OA
ATOM     37  C   UNL     1     -27.354   9.771  -4.351  0.00  0.00    +0.000 C 
ATOM     38  O   UNL     1     -26.485  11.004  -4.102  0.00  0.00    +0.000 OA
BRANCH  32  39
ATOM     39  C   UNL     1     -24.133   8.103  -6.463  0.00  0.00    +0.000 C 
ATOM     40  O   UNL     1     -24.567   8.172  -7.802  0.00  0.00    +0.000 OA
ENDBRANCH  32  39
ENDBRANCH  29  30
ENDBRANCH  27  29
ENDBRANCH   2  22
TORSDOF 8
ENDMDL
MODEL 9
REMARK VINA RESULT:      -6.9     19.841     23.508
REMARK  Name = 
REMARK  8 active torsions:
REMARK  status: ('A' for Active; 'I' for Inactive)
REMARK    1  A    between atoms: C_2  and  C_3
REMARK    2  A    between atoms: C_5  and  O_6
REMARK    3  A    between atoms: O_6  and  C_7
REMARK    4  A    between atoms: C_10  and  C_11
REMARK    5  A    between atoms: C_12  and  C_13
REMARK    6  A    between atoms: C_18  and  O_19
REMARK    7  A    between atoms: O_19  and  C_20
REMARK    8  A    between atoms: C_22  and  C_23
REMARK                            x       y       z     vdW  Elec       q    Type
REMARK                         _______ _______ _______ _____ _____    ______ ____
ROOT
ATOM      1  C   UNL     1     -11.164  20.159 -21.043  0.00  0.00    +0.000 C 
ATOM      2  C   UNL     1     -11.051  18.831 -20.902  0.00  0.00    +0.000 C 
ENDROOT
BRANCH   1   6
ATOM      3  C   UNL     1     -13.678  20.433 -24.180  0.00  0.00    +0.000 A 
ATOM      4  C   UNL     1     -12.449  19.874 -24.521  0.00  0.00    +0.000 A 
ATOM      5  C   UNL     1     -11.490  19.798 -23.515  0.00  0.00    +0.000 A 
ATOM      6  C   UNL     1     -11.729  20.461 -22.353  0.00  0.00    +0.000 A 
ATOM      7  C   UNL     1     -12.630  21.515 -22.379  0.00  0.00    +0.000 A 
ATOM      8  O   UNL     1     -12.609  22.440 -21.361  0.00  0.00    +0.000 OA
ATOM      9  C   UNL     1     -13.605  21.531 -23.370  0.00  0.00    +0.000 A 
BRANCH   3  10
ATOM     10  O   UNL     1     -14.825  20.154 -24.927  0.00  0.00    +0.000 OA
BRANCH  10  13
ATOM     11  C   UNL     1     -17.767  19.042 -23.184  0.00  0.00    +0.000 C 
ATOM     12  O   UNL     1     -16.322  19.276 -23.556  0.00  0.00    +0.000 OA
ATOM     13  C   UNL     1     -16.032  20.683 -24.029  0.00  0.00    +0.000 C 
ATOM     14  C   UNL     1     -17.179  20.406 -25.330  0.00  0.00    +0.000 C 
ATOM     15  O   UNL     1     -16.558  21.543 -26.105  0.00  0.00    +0.000 OA
ATOM     16  C   UNL     1     -18.172  21.495 -24.458  0.00  0.00    +0.000 C 
ATOM     17  O   UNL     1     -19.498  20.935 -24.993  0.00  0.00    +0.000 OA
ATOM     18  C   UNL     1     -18.389  20.665 -22.957  0.00  0.00    +0.000 C 
ATOM     19  O   UNL     1     -17.128  21.208 -22.274  0.00  0.00    +0.000 OA
BRANCH  11  21
ATOM     20  O   UNL     1     -18.841  17.838 -24.615  0.00  0.00    +0.000 OA
ATOM     21  C   UNL     1     -18.414  18.798 -24.726  0.00  0.00    +0.000 C 
ENDBRANCH  11  21
ENDBRANCH  10  13
ENDBRANCH   3  10
ENDBRANCH   1   6
BRANCH   2  22
ATOM     22  C   UNL     1     -12.353  18.215 -20.709  0.00  0.00    +0.000 A 
ATOM     23  C   UNL     1     -12.859  17.178 -21.452  0.00  0.00    +0.000 A 
ATOM     24  C   UNL     1     -14.222  16.905 -21.412  0.00  0.00    +0.000 A 
ATOM     25  O   UNL     1     -14.710  15.853 -22.199  0.00  0.00    +0.000 OA
ATOM     26  C   UNL     1     -15.098  17.722 -20.700  0.00  0.00    +0.000 A 
ATOM     27  C   UNL     1     -14.632  18.948 -20.283  0.00  0.00    +0.000 A 
ATOM     28  C   UNL     1     -13.267  18.985 -20.004  0.00  0.00    +0.000 A 
BRANCH  27  29
ATOM     29  O   UNL     1     -15.380  19.820 -19.469  0.00  0.00    +0.000 OA
BRANCH  29  30
ATOM     30  C   UNL     1     -16.584  18.872 -19.041  0.00  0.00    +0.000 C 
ATOM     31  O   UNL     1     -17.578  20.061 -19.031  0.00  0.00    +0.000 OA
ATOM     32  C   UNL     1     -18.214  18.657 -19.025  0.00  0.00    +0.000 C 
ATOM     33  C   UNL     1     -18.969  18.959 -17.513  0.00  0.00    +0.000 C 
ATOM     34  O   UNL     1     -18.779  17.512 -17.064  0.00  0.00    +0.000 OA
ATOM     35  C   UNL     1     -17.632  19.520 -16.567  0.00  0.00    +0.000 C 
ATOM     36  O   UNL     1     -17.592  20.930 -17.188  0.00  0.00    +0.000 OA
ATOM     37  C   UNL     1     -16.195  18.957 -17.342  0.00  0.00    +0.000 C 
ATOM     38  O   UNL     1     -16.544  17.485 -17.124  0.00  0.00    +0.000 OA
BRANCH  32  39
ATOM     39  C   UNL     1     -19.546  19.230 -19.855  0.00  0.00    +0.000 C 
ATOM     40  O   UNL     1     -19.915  18.038 -20.510  0.00  0.00    +0.000 OA
ENDBRANCH  32  39
ENDBRANCH  29  30
ENDBRANCH  27  29
ENDBRANCH   2  22
TORSDOF 8
ENDMDL
MODEL 10
REMARK VINA RESULT:      -6.9     25.393     29.463
REMARK  Name = 
REMARK  8 active torsions:
REMARK  status: ('A' for Active; 'I' for Inactive)
REMARK    1  A    between atoms: C_2  and  C_3
REMARK    2  A    between atoms: C_5  and  O_6
REMARK    3  A    between atoms: O_6  and  C_7
REMARK    4  A    between atoms: C_10  and  C_11
REMARK    5  A    between atoms: C_12  and  C_13
REMARK    6  A    between atoms: C_18  and  O_19
REMARK    7  A    between atoms: O_19  and  C_20
REMARK    8  A    between atoms: C_22  and  C_23
REMARK                            x       y       z     vdW  Elec       q    Type
REMARK                         _______ _______ _______ _____ _____    ______ ____
ROOT
ATOM      1  C   UNL     1      -2.010  17.890   3.504  0.00  0.00    +0.000 C 
ATOM      2  C   UNL     1      -1.343  17.815   2.344  0.00  0.00    +0.000 C 
ENDROOT
BRANCH   1   6
ATOM      3  C   UNL     1      -3.149  14.029   3.661  0.00  0.00    +0.000 A 
ATOM      4  C   UNL     1      -4.014  14.815   2.905  0.00  0.00    +0.000 A 
ATOM      5  C   UNL     1      -3.737  16.178   2.846  0.00  0.00    +0.000 A 
ATOM      6  C   UNL     1      -2.796  16.676   3.691  0.00  0.00    +0.000 A 
ATOM      7  C   UNL     1      -2.506  15.956   4.839  0.00  0.00    +0.000 A 
ATOM      8  O   UNL     1      -1.877  16.588   5.887  0.00  0.00    +0.000 OA
ATOM      9  C   UNL     1      -2.749  14.586   4.843  0.00  0.00    +0.000 A 
BRANCH   3  10
ATOM     10  O   UNL     1      -3.043  12.654   3.432  0.00  0.00    +0.000 OA
BRANCH  10  13
ATOM     11  C   UNL     1      -0.128  10.565   3.685  0.00  0.00    +0.000 C 
ATOM     12  O   UNL     1      -1.045  11.711   3.330  0.00  0.00    +0.000 OA
ATOM     13  C   UNL     1      -1.938  12.154   4.467  0.00  0.00    +0.000 C 
ATOM     14  C   UNL     1      -2.615  10.534   4.475  0.00  0.00    +0.000 C 
ATOM     15  O   UNL     1      -3.828  11.056   5.206  0.00  0.00    +0.000 OA
ATOM     16  C   UNL     1      -1.755  10.365   5.946  0.00  0.00    +0.000 C 
ATOM     17  O   UNL     1      -1.609   8.840   5.849  0.00  0.00    +0.000 OA
ATOM     18  C   UNL     1      -0.119  10.589   5.437  0.00  0.00    +0.000 C 
ATOM     19  O   UNL     1      -0.105  12.117   5.561  0.00  0.00    +0.000 OA
BRANCH  11  21
ATOM     20  O   UNL     1      -0.804   8.787   2.669  0.00  0.00    +0.000 OA
ATOM     21  C   UNL     1      -1.210   9.279   3.512  0.00  0.00    +0.000 C 
ENDBRANCH  11  21
ENDBRANCH  10  13
ENDBRANCH   3  10
ENDBRANCH   1   6
BRANCH   2  22
ATOM     22  C   UNL     1      -0.241  16.871   2.437  0.00  0.00    +0.000 A 
ATOM     23  C   UNL     1      -0.161  15.676   1.770  0.00  0.00    +0.000 A 
ATOM     24  C   UNL     1       0.749  14.713   2.190  0.00  0.00    +0.000 A 
ATOM     25  O   UNL     1       0.789  13.494   1.501  0.00  0.00    +0.000 OA
ATOM     26  C   UNL     1       1.520  14.905   3.335  0.00  0.00    +0.000 A 
ATOM     27  C   UNL     1       1.158  15.925   4.185  0.00  0.00    +0.000 A 
ATOM     28  C   UNL     1       0.563  17.018   3.559  0.00  0.00    +0.000 A 
BRANCH  27  29
ATOM     29  O   UNL     1       1.914  16.288   5.317  0.00  0.00    +0.000 OA
BRANCH  29  30
ATOM     30  C   UNL     1       1.566  15.093   6.307  0.00  0.00    +0.000 C 
ATOM     31  O   UNL     1       1.402  16.068   7.501  0.00  0.00    +0.000 OA
ATOM     32  C   UNL     1       0.830  14.652   7.710  0.00  0.00    +0.000 C 
ATOM     33  C   UNL     1       1.894  14.372   9.028  0.00  0.00    +0.000 C 
ATOM     34  O   UNL     1       2.057  12.899   8.657  0.00  0.00    +0.000 OA
ATOM     35  C   UNL     1       3.420  14.806   8.336  0.00  0.00    +0.000 C 
ATOM     36  O   UNL     1       3.198  16.328   8.427  0.00  0.00    +0.000 OA
ATOM     37  C   UNL     1       3.240  14.716   6.621  0.00  0.00    +0.000 C 
ATOM     38  O   UNL     1       2.963  13.212   6.636  0.00  0.00    +0.000 OA
BRANCH  32  39
ATOM     39  C   UNL     1      -0.348  15.253   8.732  0.00  0.00    +0.000 C 
ATOM     40  O   UNL     1      -1.434  14.475   8.282  0.00  0.00    +0.000 OA
ENDBRANCH  32  39
ENDBRANCH  29  30
ENDBRANCH  27  29
ENDBRANCH   2  22
TORSDOF 8
ENDMDL
