MODEL 1
REMARK VINA RESULT:      -9.4      0.000      0.000
REMARK  Name = 
REMARK  8 active torsions:
REMARK  status: ('A' for Active; 'I' for Inactive)
REMARK    1  A    between atoms: C_2  and  C_3
REMARK    2  A    between atoms: C_5  and  O_6
REMARK    3  A    between atoms: O_6  and  C_7
REMARK    4  A    between atoms: C_10  and  C_11
REMARK    5  A    between atoms: C_12  and  C_13
REMARK    6  A    between atoms: C_18  and  O_19
REMARK    7  A    between atoms: O_19  and  C_20
REMARK    8  A    between atoms: C_22  and  C_23
REMARK                            x       y       z     vdW  Elec       q    Type
REMARK                         _______ _______ _______ _____ _____    ______ ____
ROOT
ATOM      1  C   UNL     1     -24.616   9.316  -5.816  0.00  0.00    +0.000 C 
ATOM      2  C   UNL     1     -24.474   8.192  -5.137  0.00  0.00    +0.000 C 
ENDROOT
BRANCH   1   6
ATOM      3  C   UNL     1     -27.196   8.237  -8.950  0.00  0.00    +0.000 A 
ATOM      4  C   UNL     1     -26.164   7.400  -8.543  0.00  0.00    +0.000 A 
ATOM      5  C   UNL     1     -25.196   7.876  -7.668  0.00  0.00    +0.000 A 
ATOM      6  C   UNL     1     -25.260   9.154  -7.127  0.00  0.00    +0.000 A 
ATOM      7  C   UNL     1     -26.365   9.942  -7.410  0.00  0.00    +0.000 A 
ATOM      8  O   UNL     1     -26.979  10.723  -6.424  0.00  0.00    +0.000 OA
ATOM      9  C   UNL     1     -27.108   9.535  -8.472  0.00  0.00    +0.000 A 
BRANCH   3  10
ATOM     10  O   UNL     1     -28.142   7.810  -9.888  0.00  0.00    +0.000 OA
BRANCH  10  13
ATOM     11  C   UNL     1     -28.935   5.946 -10.467  0.00  0.00    +0.000 C 
ATOM     12  O   UNL     1     -27.742   6.078 -11.400  0.00  0.00    +0.000 OA
ATOM     13  C   UNL     1     -27.275   7.536 -11.172  0.00  0.00    +0.000 C 
ATOM     14  C   UNL     1     -28.437   8.171 -12.321  0.00  0.00    +0.000 C 
ATOM     15  O   UNL     1     -28.169   9.591 -11.894  0.00  0.00    +0.000 OA
ATOM     16  C   UNL     1     -29.809   8.034 -11.301  0.00  0.00    +0.000 C 
ATOM     17  O   UNL     1     -30.685   8.485 -12.447  0.00  0.00    +0.000 OA
ATOM     18  C   UNL     1     -30.002   6.383 -11.767  0.00  0.00    +0.000 C 
ATOM     19  O   UNL     1     -31.222   6.228 -10.897  0.00  0.00    +0.000 OA
BRANCH  11  21
ATOM     20  O   UNL     1     -28.602   3.902 -10.151  0.00  0.00    +0.000 OA
ATOM     21  C   UNL     1     -29.059   4.328 -10.821  0.00  0.00    +0.000 C 
ENDBRANCH  11  21
ENDBRANCH  10  13
ENDBRANCH   3  10
ENDBRANCH   1   6
BRANCH   2  22
ATOM     22  C   UNL     1     -24.255   8.154  -3.683  0.00  0.00    +0.000 A 
ATOM     23  C   UNL     1     -23.282   9.013  -3.188  0.00  0.00    +0.000 A 
ATOM     24  C   UNL     1     -22.594   8.735  -2.034  0.00  0.00    +0.000 A 
ATOM     25  O   UNL     1     -22.199   9.765  -1.185  0.00  0.00    +0.000 OA
ATOM     26  C   UNL     1     -22.528   7.396  -1.666  0.00  0.00    +0.000 A 
ATOM     27  C   UNL     1     -23.586   6.554  -1.996  0.00  0.00    +0.000 A 
ATOM     28  C   UNL     1     -24.325   6.902  -3.112  0.00  0.00    +0.000 A 
BRANCH  27  29
ATOM     29  O   UNL     1     -24.033   5.527  -1.244  0.00  0.00    +0.000 OA
BRANCH  29  30
ATOM     30  C   UNL     1     -25.504   5.563  -0.698  0.00  0.00    +0.000 C 
ATOM     31  O   UNL     1     -25.105   5.517   0.805  0.00  0.00    +0.000 OA
ATOM     32  C   UNL     1     -26.561   5.689   1.246  0.00  0.00    +0.000 C 
ATOM     33  C   UNL     1     -26.822   3.971   1.341  0.00  0.00    +0.000 C 
ATOM     34  O   UNL     1     -28.272   4.149   1.720  0.00  0.00    +0.000 OA
ATOM     35  C   UNL     1     -27.241   3.893  -0.331  0.00  0.00    +0.000 C 
ATOM     36  O   UNL     1     -27.330   2.384  -0.241  0.00  0.00    +0.000 OA
ATOM     37  C   UNL     1     -25.573   3.811  -0.744  0.00  0.00    +0.000 C 
ATOM     38  O   UNL     1     -25.866   3.798  -2.218  0.00  0.00    +0.000 OA
BRANCH  32  39
ATOM     39  C   UNL     1     -26.160   5.749   2.855  0.00  0.00    +0.000 C 
ATOM     40  O   UNL     1     -24.877   6.204   2.925  0.00  0.00    +0.000 OA
ENDBRANCH  32  39
ENDBRANCH  29  30
ENDBRANCH  27  29
ENDBRANCH   2  22
TORSDOF 8
ENDMDL
MODEL 2
REMARK VINA RESULT:      -8.3      2.981      5.977
REMARK  Name = 
REMARK  8 active torsions:
REMARK  status: ('A' for Active; 'I' for Inactive)
REMARK    1  A    between atoms: C_2  and  C_3
REMARK    2  A    between atoms: C_5  and  O_6
REMARK    3  A    between atoms: O_6  and  C_7
REMARK    4  A    between atoms: C_10  and  C_11
REMARK    5  A    between atoms: C_12  and  C_13
REMARK    6  A    between atoms: C_18  and  O_19
REMARK    7  A    between atoms: O_19  and  C_20
REMARK    8  A    between atoms: C_22  and  C_23
REMARK                            x       y       z     vdW  Elec       q    Type
REMARK                         _______ _______ _______ _____ _____    ______ ____
ROOT
ATOM      1  C   UNL     1     -24.936   9.917  -5.946  0.00  0.00    +0.000 C 
ATOM      2  C   UNL     1     -23.773   9.322  -5.746  0.00  0.00    +0.000 C 
ENDROOT
BRANCH   1   6
ATOM      3  C   UNL     1     -27.359   8.371  -9.009  0.00  0.00    +0.000 A 
ATOM      4  C   UNL     1     -26.223   7.697  -8.576  0.00  0.00    +0.000 A 
ATOM      5  C   UNL     1     -25.325   8.335  -7.730  0.00  0.00    +0.000 A 
ATOM      6  C   UNL     1     -25.556   9.615  -7.243  0.00  0.00    +0.000 A 
ATOM      7  C   UNL     1     -26.758  10.236  -7.549  0.00  0.00    +0.000 A 
ATOM      8  O   UNL     1     -27.467  10.971  -6.592  0.00  0.00    +0.000 OA
ATOM      9  C   UNL     1     -27.443   9.689  -8.587  0.00  0.00    +0.000 A 
BRANCH   3  10
ATOM     10  O   UNL     1     -28.242   7.782  -9.919  0.00  0.00    +0.000 OA
BRANCH  10  13
ATOM     11  C   UNL     1     -29.002   5.894 -10.464  0.00  0.00    +0.000 C 
ATOM     12  O   UNL     1     -27.775   6.002 -11.354  0.00  0.00    +0.000 OA
ATOM     13  C   UNL     1     -27.324   7.470 -11.159  0.00  0.00    +0.000 C 
ATOM     14  C   UNL     1     -28.443   8.057 -12.374  0.00  0.00    +0.000 C 
ATOM     15  O   UNL     1     -28.200   9.493 -11.986  0.00  0.00    +0.000 OA
ATOM     16  C   UNL     1     -29.854   7.946 -11.404  0.00  0.00    +0.000 C 
ATOM     17  O   UNL     1     -30.686   8.351 -12.598  0.00  0.00    +0.000 OA
ATOM     18  C   UNL     1     -30.020   6.279 -11.818  0.00  0.00    +0.000 C 
ATOM     19  O   UNL     1     -31.273   6.146 -10.992  0.00  0.00    +0.000 OA
BRANCH  11  21
ATOM     20  O   UNL     1     -28.525   3.876 -10.171  0.00  0.00    +0.000 OA
ATOM     21  C   UNL     1     -29.104   4.264 -10.766  0.00  0.00    +0.000 C 
ENDBRANCH  11  21
ENDBRANCH  10  13
ENDBRANCH   3  10
ENDBRANCH   1   6
BRANCH   2  22
ATOM     22  C   UNL     1     -23.185   9.136  -4.412  0.00  0.00    +0.000 A 
ATOM     23  C   UNL     1     -23.730   8.117  -3.640  0.00  0.00    +0.000 A 
ATOM     24  C   UNL     1     -23.702   8.159  -2.268  0.00  0.00    +0.000 A 
ATOM     25  O   UNL     1     -23.566   6.985  -1.532  0.00  0.00    +0.000 OA
ATOM     26  C   UNL     1     -23.586   9.419  -1.694  0.00  0.00    +0.000 A 
ATOM     27  C   UNL     1     -22.881  10.407  -2.375  0.00  0.00    +0.000 A 
ATOM     28  C   UNL     1     -22.844  10.298  -3.753  0.00  0.00    +0.000 A 
BRANCH  27  29
ATOM     29  O   UNL     1     -22.120  11.363  -1.803  0.00  0.00    +0.000 OA
BRANCH  29  30
ATOM     30  C   UNL     1     -22.814  12.484  -0.952  0.00  0.00    +0.000 C 
ATOM     31  O   UNL     1     -23.399  13.255  -2.170  0.00  0.00    +0.000 OA
ATOM     32  C   UNL     1     -24.150  14.225  -1.255  0.00  0.00    +0.000 C 
ATOM     33  C   UNL     1     -22.840  15.371  -1.257  0.00  0.00    +0.000 C 
ATOM     34  O   UNL     1     -23.564  16.296  -0.310  0.00  0.00    +0.000 OA
ATOM     35  C   UNL     1     -22.075  14.571   0.067  0.00  0.00    +0.000 C 
ATOM     36  O   UNL     1     -20.889  15.506  -0.051  0.00  0.00    +0.000 OA
ATOM     37  C   UNL     1     -21.355  13.455  -1.026  0.00  0.00    +0.000 C 
ATOM     38  O   UNL     1     -20.706  12.678   0.085  0.00  0.00    +0.000 OA
BRANCH  32  39
ATOM     39  C   UNL     1     -24.875  15.004  -2.529  0.00  0.00    +0.000 C 
ATOM     40  O   UNL     1     -26.219  14.960  -2.304  0.00  0.00    +0.000 OA
ENDBRANCH  32  39
ENDBRANCH  29  30
ENDBRANCH  27  29
ENDBRANCH   2  22
TORSDOF 8
ENDMDL
MODEL 3
REMARK VINA RESULT:      -7.7     13.825     17.453
REMARK  Name = 
REMARK  8 active torsions:
REMARK  status: ('A' for Active; 'I' for Inactive)
REMARK    1  A    between atoms: C_2  and  C_3
REMARK    2  A    between atoms: C_5  and  O_6
REMARK    3  A    between atoms: O_6  and  C_7
REMARK    4  A    between atoms: C_10  and  C_11
REMARK    5  A    between atoms: C_12  and  C_13
REMARK    6  A    between atoms: C_18  and  O_19
REMARK    7  A    between atoms: O_19  and  C_20
REMARK    8  A    between atoms: C_22  and  C_23
REMARK                            x       y       z     vdW  Elec       q    Type
REMARK                         _______ _______ _______ _____ _____    ______ ____
ROOT
ATOM      1  C   UNL     1     -36.467  -6.675  -8.290  0.00  0.00    +0.000 C 
ATOM      2  C   UNL     1     -36.275  -5.378  -8.123  0.00  0.00    +0.000 C 
ENDROOT
BRANCH   1   6
ATOM      3  C   UNL     1     -36.914  -8.727 -11.927  0.00  0.00    +0.000 A 
ATOM      4  C   UNL     1     -35.788  -7.955 -11.666  0.00  0.00    +0.000 A 
ATOM      5  C   UNL     1     -35.771  -7.114 -10.561  0.00  0.00    +0.000 A 
ATOM      6  C   UNL     1     -36.828  -7.063  -9.660  0.00  0.00    +0.000 A 
ATOM      7  C   UNL     1     -37.889  -7.939  -9.830  0.00  0.00    +0.000 A 
ATOM      8  O   UNL     1     -38.479  -8.593  -8.742  0.00  0.00    +0.000 OA
ATOM      9  C   UNL     1     -37.972  -8.514 -11.058  0.00  0.00    +0.000 A 
BRANCH   3  10
ATOM     10  O   UNL     1     -36.989  -9.527 -13.072  0.00  0.00    +0.000 OA
BRANCH  10  13
ATOM     11  C   UNL     1     -37.291 -11.612 -13.097  0.00  0.00    +0.000 C 
ATOM     12  O   UNL     1     -35.774 -11.519 -13.049  0.00  0.00    +0.000 OA
ATOM     13  C   UNL     1     -35.505 -10.011 -13.269  0.00  0.00    +0.000 C 
ATOM     14  C   UNL     1     -35.591 -10.171 -15.013  0.00  0.00    +0.000 C 
ATOM     15  O   UNL     1     -35.605  -8.676 -15.207  0.00  0.00    +0.000 OA
ATOM     16  C   UNL     1     -37.300 -10.284 -15.111  0.00  0.00    +0.000 C 
ATOM     17  O   UNL     1     -37.182 -10.531 -16.596  0.00  0.00    +0.000 OA
ATOM     18  C   UNL     1     -37.216 -11.978 -14.794  0.00  0.00    +0.000 C 
ATOM     19  O   UNL     1     -38.712 -12.122 -14.891  0.00  0.00    +0.000 OA
BRANCH  11  21
ATOM     20  O   UNL     1     -36.635 -13.259 -11.981  0.00  0.00    +0.000 OA
ATOM     21  C   UNL     1     -37.226 -13.218 -12.680  0.00  0.00    +0.000 C 
ENDBRANCH  11  21
ENDBRANCH  10  13
ENDBRANCH   3  10
ENDBRANCH   1   6
BRANCH   2  22
ATOM     22  C   UNL     1     -35.523  -4.816  -6.991  0.00  0.00    +0.000 A 
ATOM     23  C   UNL     1     -36.180  -3.849  -6.241  0.00  0.00    +0.000 A 
ATOM     24  C   UNL     1     -35.492  -2.880  -5.554  0.00  0.00    +0.000 A 
ATOM     25  O   UNL     1     -35.974  -2.404  -4.338  0.00  0.00    +0.000 OA
ATOM     26  C   UNL     1     -34.215  -2.588  -6.018  0.00  0.00    +0.000 A 
ATOM     27  C   UNL     1     -33.467  -3.600  -6.612  0.00  0.00    +0.000 A 
ATOM     28  C   UNL     1     -34.180  -4.616  -7.221  0.00  0.00    +0.000 A 
BRANCH  27  29
ATOM     29  O   UNL     1     -32.129  -3.745  -6.516  0.00  0.00    +0.000 OA
BRANCH  29  30
ATOM     30  C   UNL     1     -31.547  -4.976  -5.735  0.00  0.00    +0.000 C 
ATOM     31  O   UNL     1     -32.335  -4.705  -4.421  0.00  0.00    +0.000 OA
ATOM     32  C   UNL     1     -31.818  -5.999  -3.788  0.00  0.00    +0.000 C 
ATOM     33  C   UNL     1     -30.463  -5.195  -3.051  0.00  0.00    +0.000 C 
ATOM     34  O   UNL     1     -29.929  -6.485  -2.478  0.00  0.00    +0.000 OA
ATOM     35  C   UNL     1     -29.506  -5.401  -4.472  0.00  0.00    +0.000 C 
ATOM     36  O   UNL     1     -28.396  -4.581  -3.847  0.00  0.00    +0.000 OA
ATOM     37  C   UNL     1     -30.218  -3.990  -5.153  0.00  0.00    +0.000 C 
ATOM     38  O   UNL     1     -29.458  -4.143  -6.441  0.00  0.00    +0.000 OA
BRANCH  32  39
ATOM     39  C   UNL     1     -32.727  -5.795  -2.415  0.00  0.00    +0.000 C 
ATOM     40  O   UNL     1     -33.877  -6.503  -2.594  0.00  0.00    +0.000 OA
ENDBRANCH  32  39
ENDBRANCH  29  30
ENDBRANCH  27  29
ENDBRANCH   2  22
TORSDOF 8
ENDMDL
MODEL 4
REMARK VINA RESULT:      -7.7      2.632     11.342
REMARK  Name = 
REMARK  8 active torsions:
REMARK  status: ('A' for Active; 'I' for Inactive)
REMARK    1  A    between atoms: C_2  and  C_3
REMARK    2  A    between atoms: C_5  and  O_6
REMARK    3  A    between atoms: O_6  and  C_7
REMARK    4  A    between atoms: C_10  and  C_11
REMARK    5  A    between atoms: C_12  and  C_13
REMARK    6  A    between atoms: C_18  and  O_19
REMARK    7  A    between atoms: O_19  and  C_20
REMARK    8  A    between atoms: C_22  and  C_23
REMARK                            x       y       z     vdW  Elec       q    Type
REMARK                         _______ _______ _______ _____ _____    ______ ____
ROOT
ATOM      1  C   UNL     1     -26.259   7.763  -7.755  0.00  0.00    +0.000 C 
ATOM      2  C   UNL     1     -27.103   8.568  -8.376  0.00  0.00    +0.000 C 
ENDROOT
BRANCH   1   6
ATOM      3  C   UNL     1     -24.330   8.278  -4.060  0.00  0.00    +0.000 A 
ATOM      4  C   UNL     1     -25.678   7.948  -4.131  0.00  0.00    +0.000 A 
ATOM      5  C   UNL     1     -26.337   8.008  -5.352  0.00  0.00    +0.000 A 
ATOM      6  C   UNL     1     -25.674   8.327  -6.531  0.00  0.00    +0.000 A 
ATOM      7  C   UNL     1     -24.300   8.510  -6.492  0.00  0.00    +0.000 A 
ATOM      8  O   UNL     1     -23.465   8.000  -7.493  0.00  0.00    +0.000 OA
ATOM      9  C   UNL     1     -23.780   8.717  -5.254  0.00  0.00    +0.000 A 
BRANCH   3  10
ATOM     10  O   UNL     1     -23.658   8.300  -2.833  0.00  0.00    +0.000 OA
BRANCH  10  13
ATOM     11  C   UNL     1     -22.888   6.890  -1.470  0.00  0.00    +0.000 C 
ATOM     12  O   UNL     1     -24.307   7.074  -0.957  0.00  0.00    +0.000 OA
ATOM     13  C   UNL     1     -24.829   8.275  -1.782  0.00  0.00    +0.000 C 
ATOM     14  C   UNL     1     -24.118   9.441  -0.683  0.00  0.00    +0.000 C 
ATOM     15  O   UNL     1     -24.388  10.583  -1.628  0.00  0.00    +0.000 OA
ATOM     16  C   UNL     1     -22.502   9.259  -1.229  0.00  0.00    +0.000 C 
ATOM     17  O   UNL     1     -22.045  10.198  -0.137  0.00  0.00    +0.000 OA
ATOM     18  C   UNL     1     -22.291   7.899  -0.187  0.00  0.00    +0.000 C 
ATOM     19  O   UNL     1     -20.863   7.719  -0.628  0.00  0.00    +0.000 OA
BRANCH  11  21
ATOM     20  O   UNL     1     -23.286   4.904  -0.933  0.00  0.00    +0.000 OA
ATOM     21  C   UNL     1     -22.715   5.513  -0.557  0.00  0.00    +0.000 C 
ENDBRANCH  11  21
ENDBRANCH  10  13
ENDBRANCH   3  10
ENDBRANCH   1   6
BRANCH   2  22
ATOM     22  C   UNL     1     -28.100   8.092  -9.347  0.00  0.00    +0.000 A 
ATOM     23  C   UNL     1     -27.703   7.043 -10.167  0.00  0.00    +0.000 A 
ATOM     24  C   UNL     1     -28.245   6.858 -11.414  0.00  0.00    +0.000 A 
ATOM     25  O   UNL     1     -28.426   5.573 -11.918  0.00  0.00    +0.000 OA
ATOM     26  C   UNL     1     -28.795   7.982 -12.017  0.00  0.00    +0.000 A 
ATOM     27  C   UNL     1     -29.366   8.966 -11.214  0.00  0.00    +0.000 A 
ATOM     28  C   UNL     1     -28.868   9.077  -9.929  0.00  0.00    +0.000 A 
BRANCH  27  29
ATOM     29  O   UNL     1     -30.446   9.708 -11.533  0.00  0.00    +0.000 OA
BRANCH  29  30
ATOM     30  C   UNL     1     -31.641   9.794 -10.519  0.00  0.00    +0.000 C 
ATOM     31  O   UNL     1     -32.361   8.513 -11.028  0.00  0.00    +0.000 OA
ATOM     32  C   UNL     1     -33.411   8.605  -9.919  0.00  0.00    +0.000 C 
ATOM     33  C   UNL     1     -34.504   9.521 -10.915  0.00  0.00    +0.000 C 
ATOM     34  O   UNL     1     -35.510   9.656  -9.798  0.00  0.00    +0.000 OA
ATOM     35  C   UNL     1     -33.755  11.006 -10.455  0.00  0.00    +0.000 C 
ATOM     36  O   UNL     1     -34.635  11.756 -11.432  0.00  0.00    +0.000 OA
ATOM     37  C   UNL     1     -32.549  10.769 -11.660  0.00  0.00    +0.000 C 
ATOM     38  O   UNL     1     -31.815  12.022 -11.271  0.00  0.00    +0.000 OA
BRANCH  32  39
ATOM     39  C   UNL     1     -34.141   7.184 -10.369  0.00  0.00    +0.000 C 
ATOM     40  O   UNL     1     -33.148   6.338 -10.763  0.00  0.00    +0.000 OA
ENDBRANCH  32  39
ENDBRANCH  29  30
ENDBRANCH  27  29
ENDBRANCH   2  22
TORSDOF 8
ENDMDL
MODEL 5
REMARK VINA RESULT:      -7.7      2.319      3.179
REMARK  Name = 
REMARK  8 active torsions:
REMARK  status: ('A' for Active; 'I' for Inactive)
REMARK    1  A    between atoms: C_2  and  C_3
REMARK    2  A    between atoms: C_5  and  O_6
REMARK    3  A    between atoms: O_6  and  C_7
REMARK    4  A    between atoms: C_10  and  C_11
REMARK    5  A    between atoms: C_12  and  C_13
REMARK    6  A    between atoms: C_18  and  O_19
REMARK    7  A    between atoms: O_19  and  C_20
REMARK    8  A    between atoms: C_22  and  C_23
REMARK                            x       y       z     vdW  Elec       q    Type
REMARK                         _______ _______ _______ _____ _____    ______ ____
ROOT
ATOM      1  C   UNL     1     -24.634   8.998  -5.762  0.00  0.00    +0.000 C 
ATOM      2  C   UNL     1     -24.827   7.896  -5.060  0.00  0.00    +0.000 C 
ENDROOT
BRANCH   1   6
ATOM      3  C   UNL     1     -27.291   8.327  -8.945  0.00  0.00    +0.000 A 
ATOM      4  C   UNL     1     -26.229   7.466  -8.697  0.00  0.00    +0.000 A 
ATOM      5  C   UNL     1     -25.243   7.833  -7.789  0.00  0.00    +0.000 A 
ATOM      6  C   UNL     1     -25.317   9.016  -7.063  0.00  0.00    +0.000 A 
ATOM      7  C   UNL     1     -26.448   9.807  -7.194  0.00  0.00    +0.000 A 
ATOM      8  O   UNL     1     -27.045  10.418  -6.085  0.00  0.00    +0.000 OA
ATOM      9  C   UNL     1     -27.215   9.542  -8.283  0.00  0.00    +0.000 A 
BRANCH   3  10
ATOM     10  O   UNL     1     -28.258   8.019  -9.908  0.00  0.00    +0.000 OA
BRANCH  10  13
ATOM     11  C   UNL     1     -29.118   6.171 -10.439  0.00  0.00    +0.000 C 
ATOM     12  O   UNL     1     -27.919   6.234 -11.372  0.00  0.00    +0.000 OA
ATOM     13  C   UNL     1     -27.399   7.679 -11.182  0.00  0.00    +0.000 C 
ATOM     14  C   UNL     1     -28.534   8.325 -12.351  0.00  0.00    +0.000 C 
ATOM     15  O   UNL     1     -28.215   9.745 -11.961  0.00  0.00    +0.000 OA
ATOM     16  C   UNL     1     -29.913   8.266 -11.332  0.00  0.00    +0.000 C 
ATOM     17  O   UNL     1     -30.768   8.718 -12.492  0.00  0.00    +0.000 OA
ATOM     18  C   UNL     1     -30.166   6.612 -11.753  0.00  0.00    +0.000 C 
ATOM     19  O   UNL     1     -31.393   6.526 -10.884  0.00  0.00    +0.000 OA
BRANCH  11  21
ATOM     20  O   UNL     1     -28.553   4.154 -10.399  0.00  0.00    +0.000 OA
ATOM     21  C   UNL     1     -29.301   4.549 -10.750  0.00  0.00    +0.000 C 
ENDBRANCH  11  21
ENDBRANCH  10  13
ENDBRANCH   3  10
ENDBRANCH   1   6
BRANCH   2  22
ATOM     22  C   UNL     1     -24.607   7.819  -3.608  0.00  0.00    +0.000 A 
ATOM     23  C   UNL     1     -23.613   6.946  -3.185  0.00  0.00    +0.000 A 
ATOM     24  C   UNL     1     -23.648   6.361  -1.944  0.00  0.00    +0.000 A 
ATOM     25  O   UNL     1     -22.466   6.105  -1.254  0.00  0.00    +0.000 OA
ATOM     26  C   UNL     1     -24.899   6.261  -1.348  0.00  0.00    +0.000 A 
ATOM     27  C   UNL     1     -25.854   7.236  -1.619  0.00  0.00    +0.000 A 
ATOM     28  C   UNL     1     -25.748   7.879  -2.838  0.00  0.00    +0.000 A 
BRANCH  27  29
ATOM     29  O   UNL     1     -26.770   7.700  -0.744  0.00  0.00    +0.000 OA
BRANCH  29  30
ATOM     30  C   UNL     1     -27.983   6.786  -0.350  0.00  0.00    +0.000 C 
ATOM     31  O   UNL     1     -28.975   7.403  -1.377  0.00  0.00    +0.000 OA
ATOM     32  C   UNL     1     -30.057   6.382  -1.019  0.00  0.00    +0.000 C 
ATOM     33  C   UNL     1     -30.765   7.428   0.177  0.00  0.00    +0.000 C 
ATOM     34  O   UNL     1     -31.793   6.394   0.565  0.00  0.00    +0.000 OA
ATOM     35  C   UNL     1     -29.686   6.849   1.393  0.00  0.00    +0.000 C 
ATOM     36  O   UNL     1     -30.238   7.865   2.371  0.00  0.00    +0.000 OA
ATOM     37  C   UNL     1     -28.486   7.958   0.854  0.00  0.00    +0.000 C 
ATOM     38  O   UNL     1     -27.478   7.461   1.852  0.00  0.00    +0.000 OA
BRANCH  32  39
ATOM     39  C   UNL     1     -31.101   6.948  -2.178  0.00  0.00    +0.000 C 
ATOM     40  O   UNL     1     -31.491   5.870  -2.917  0.00  0.00    +0.000 OA
ENDBRANCH  32  39
ENDBRANCH  29  30
ENDBRANCH  27  29
ENDBRANCH   2  22
TORSDOF 8
ENDMDL
MODEL 6
REMARK VINA RESULT:      -7.7      1.714      2.422
REMARK  Name = 
REMARK  8 active torsions:
REMARK  status: ('A' for Active; 'I' for Inactive)
REMARK    1  A    between atoms: C_2  and  C_3
REMARK    2  A    between atoms: C_5  and  O_6
REMARK    3  A    between atoms: O_6  and  C_7
REMARK    4  A    between atoms: C_10  and  C_11
REMARK    5  A    between atoms: C_12  and  C_13
REMARK    6  A    between atoms: C_18  and  O_19
REMARK    7  A    between atoms: O_19  and  C_20
REMARK    8  A    between atoms: C_22  and  C_23
REMARK                            x       y       z     vdW  Elec       q    Type
REMARK                         _______ _______ _______ _____ _____    ______ ____
ROOT
ATOM      1  C   UNL     1     -25.648   9.167  -5.026  0.00  0.00    +0.000 C 
ATOM      2  C   UNL     1     -24.991   8.073  -4.687  0.00  0.00    +0.000 C 
ENDROOT
BRANCH   1   6
ATOM      3  C   UNL     1     -27.665   8.243  -8.592  0.00  0.00    +0.000 A 
ATOM      4  C   UNL     1     -26.456   7.639  -8.268  0.00  0.00    +0.000 A 
ATOM      5  C   UNL     1     -25.706   8.126  -7.205  0.00  0.00    +0.000 A 
ATOM      6  C   UNL     1     -26.158   9.167  -6.404  0.00  0.00    +0.000 A 
ATOM      7  C   UNL     1     -27.429   9.675  -6.627  0.00  0.00    +0.000 A 
ATOM      8  O   UNL     1     -28.285   9.996  -5.567  0.00  0.00    +0.000 OA
ATOM      9  C   UNL     1     -27.974   9.359  -7.830  0.00  0.00    +0.000 A 
BRANCH   3  10
ATOM     10  O   UNL     1     -28.405   7.823  -9.702  0.00  0.00    +0.000 OA
BRANCH  10  13
ATOM     11  C   UNL     1     -28.938   5.941 -10.485  0.00  0.00    +0.000 C 
ATOM     12  O   UNL     1     -27.619   6.208 -11.192  0.00  0.00    +0.000 OA
ATOM     13  C   UNL     1     -27.314   7.681 -10.828  0.00  0.00    +0.000 C 
ATOM     14  C   UNL     1     -28.311   8.293 -12.133  0.00  0.00    +0.000 C 
ATOM     15  O   UNL     1     -28.234   9.703 -11.608  0.00  0.00    +0.000 OA
ATOM     16  C   UNL     1     -29.822   8.003 -11.372  0.00  0.00    +0.000 C 
ATOM     17  O   UNL     1     -30.523   8.451 -12.633  0.00  0.00    +0.000 OA
ATOM     18  C   UNL     1     -29.801   6.370 -11.931  0.00  0.00    +0.000 C 
ATOM     19  O   UNL     1     -31.135   6.082 -11.292  0.00  0.00    +0.000 OA
BRANCH  11  21
ATOM     20  O   UNL     1     -28.583   3.901 -10.171  0.00  0.00    +0.000 OA
ATOM     21  C   UNL     1     -28.871   4.340 -10.921  0.00  0.00    +0.000 C 
ENDBRANCH  11  21
ENDBRANCH  10  13
ENDBRANCH   3  10
ENDBRANCH   1   6
BRANCH   2  22
ATOM     22  C   UNL     1     -24.762   7.672  -3.291  0.00  0.00    +0.000 A 
ATOM     23  C   UNL     1     -23.528   7.098  -3.014  0.00  0.00    +0.000 A 
ATOM     24  C   UNL     1     -23.360   6.214  -1.978  0.00  0.00    +0.000 A 
ATOM     25  O   UNL     1     -22.166   6.185  -1.264  0.00  0.00    +0.000 OA
ATOM     26  C   UNL     1     -24.500   5.540  -1.556  0.00  0.00    +0.000 A 
ATOM     27  C   UNL     1     -25.734   6.175  -1.657  0.00  0.00    +0.000 A 
ATOM     28  C   UNL     1     -25.855   7.130  -2.650  0.00  0.00    +0.000 A 
BRANCH  27  29
ATOM     29  O   UNL     1     -26.757   6.044  -0.788  0.00  0.00    +0.000 OA
BRANCH  29  30
ATOM     30  C   UNL     1     -27.204   7.287   0.061  0.00  0.00    +0.000 C 
ATOM     31  O   UNL     1     -26.030   7.202   1.078  0.00  0.00    +0.000 OA
ATOM     32  C   UNL     1     -26.466   8.499   1.762  0.00  0.00    +0.000 C 
ATOM     33  C   UNL     1     -27.439   7.653   2.931  0.00  0.00    +0.000 C 
ATOM     34  O   UNL     1     -27.909   8.939   3.565  0.00  0.00    +0.000 OA
ATOM     35  C   UNL     1     -28.798   7.649   1.868  0.00  0.00    +0.000 C 
ATOM     36  O   UNL     1     -29.570   6.798   2.855  0.00  0.00    +0.000 OA
ATOM     37  C   UNL     1     -28.178   6.248   1.084  0.00  0.00    +0.000 C 
ATOM     38  O   UNL     1     -29.306   6.220   0.090  0.00  0.00    +0.000 OA
BRANCH  32  39
ATOM     39  C   UNL     1     -25.167   8.497   2.795  0.00  0.00    +0.000 C 
ATOM     40  O   UNL     1     -24.431   9.607   2.504  0.00  0.00    +0.000 OA
ENDBRANCH  32  39
ENDBRANCH  29  30
ENDBRANCH  27  29
ENDBRANCH   2  22
TORSDOF 8
ENDMDL
MODEL 7
REMARK VINA RESULT:      -7.6     13.559     17.208
REMARK  Name = 
REMARK  8 active torsions:
REMARK  status: ('A' for Active; 'I' for Inactive)
REMARK    1  A    between atoms: C_2  and  C_3
REMARK    2  A    between atoms: C_5  and  O_6
REMARK    3  A    between atoms: O_6  and  C_7
REMARK    4  A    between atoms: C_10  and  C_11
REMARK    5  A    between atoms: C_12  and  C_13
REMARK    6  A    between atoms: C_18  and  O_19
REMARK    7  A    between atoms: O_19  and  C_20
REMARK    8  A    between atoms: C_22  and  C_23
REMARK                            x       y       z     vdW  Elec       q    Type
REMARK                         _______ _______ _______ _____ _____    ______ ____
ROOT
ATOM      1  C   UNL     1     -37.031  -6.042  -7.863  0.00  0.00    +0.000 C 
ATOM      2  C   UNL     1     -37.011  -4.734  -7.681  0.00  0.00    +0.000 C 
ENDROOT
BRANCH   1   6
ATOM      3  C   UNL     1     -36.988  -8.270 -11.423  0.00  0.00    +0.000 A 
ATOM      4  C   UNL     1     -35.840  -8.113 -10.655  0.00  0.00    +0.000 A 
ATOM      5  C   UNL     1     -35.829  -7.192  -9.615  0.00  0.00    +0.000 A 
ATOM      6  C   UNL     1     -36.959  -6.460  -9.270  0.00  0.00    +0.000 A 
ATOM      7  C   UNL     1     -38.148  -6.721  -9.933  0.00  0.00    +0.000 A 
ATOM      8  O   UNL     1     -39.369  -6.780  -9.250  0.00  0.00    +0.000 OA
ATOM      9  C   UNL     1     -38.021  -7.405 -11.099  0.00  0.00    +0.000 A 
BRANCH   3  10
ATOM     10  O   UNL     1     -37.005  -9.134 -12.523  0.00  0.00    +0.000 OA
BRANCH  10  13
ATOM     11  C   UNL     1     -37.294 -11.215 -12.678  0.00  0.00    +0.000 C 
ATOM     12  O   UNL     1     -35.786 -11.124 -12.511  0.00  0.00    +0.000 OA
ATOM     13  C   UNL     1     -35.508  -9.606 -12.632  0.00  0.00    +0.000 C 
ATOM     14  C   UNL     1     -35.461  -9.675 -14.383  0.00  0.00    +0.000 C 
ATOM     15  O   UNL     1     -35.467  -8.173 -14.500  0.00  0.00    +0.000 OA
ATOM     16  C   UNL     1     -37.157  -9.785 -14.616  0.00  0.00    +0.000 C 
ATOM     17  O   UNL     1     -36.925  -9.955 -16.099  0.00  0.00    +0.000 OA
ATOM     18  C   UNL     1     -37.089 -11.494 -14.381  0.00  0.00    +0.000 C 
ATOM     19  O   UNL     1     -38.573 -11.633 -14.598  0.00  0.00    +0.000 OA
BRANCH  11  21
ATOM     20  O   UNL     1     -36.901 -12.900 -11.497  0.00  0.00    +0.000 OA
ATOM     21  C   UNL     1     -37.253 -12.841 -12.340  0.00  0.00    +0.000 C 
ENDBRANCH  11  21
ENDBRANCH  10  13
ENDBRANCH   3  10
ENDBRANCH   1   6
BRANCH   2  22
ATOM     22  C   UNL     1     -36.658  -4.106  -6.399  0.00  0.00    +0.000 A 
ATOM     23  C   UNL     1     -36.820  -2.728  -6.328  0.00  0.00    +0.000 A 
ATOM     24  C   UNL     1     -36.067  -1.957  -5.478  0.00  0.00    +0.000 A 
ATOM     25  O   UNL     1     -36.617  -0.827  -4.881  0.00  0.00    +0.000 OA
ATOM     26  C   UNL     1     -34.845  -2.490  -5.086  0.00  0.00    +0.000 A 
ATOM     27  C   UNL     1     -34.718  -3.872  -4.974  0.00  0.00    +0.000 A 
ATOM     28  C   UNL     1     -35.550  -4.633  -5.773  0.00  0.00    +0.000 A 
BRANCH  27  29
ATOM     29  O   UNL     1     -33.966  -4.517  -4.058  0.00  0.00    +0.000 OA
BRANCH  29  30
ATOM     30  C   UNL     1     -32.476  -4.074  -3.842  0.00  0.00    +0.000 C 
ATOM     31  O   UNL     1     -31.992  -4.482  -5.264  0.00  0.00    +0.000 OA
ATOM     32  C   UNL     1     -30.600  -3.902  -5.008  0.00  0.00    +0.000 C 
ATOM     33  C   UNL     1     -29.978  -5.425  -4.443  0.00  0.00    +0.000 C 
ATOM     34  O   UNL     1     -28.623  -4.832  -4.141  0.00  0.00    +0.000 OA
ATOM     35  C   UNL     1     -30.508  -5.101  -2.834  0.00  0.00    +0.000 C 
ATOM     36  O   UNL     1     -30.074  -6.487  -2.408  0.00  0.00    +0.000 OA
ATOM     37  C   UNL     1     -32.080  -5.673  -3.239  0.00  0.00    +0.000 C 
ATOM     38  O   UNL     1     -32.622  -5.361  -1.872  0.00  0.00    +0.000 OA
BRANCH  32  39
ATOM     39  C   UNL     1     -30.083  -4.227  -6.551  0.00  0.00    +0.000 C 
ATOM     40  O   UNL     1     -31.183  -4.171  -7.355  0.00  0.00    +0.000 OA
ENDBRANCH  32  39
ENDBRANCH  29  30
ENDBRANCH  27  29
ENDBRANCH   2  22
TORSDOF 8
ENDMDL
MODEL 8
REMARK VINA RESULT:      -7.5      1.736      3.297
REMARK  Name = 
REMARK  8 active torsions:
REMARK  status: ('A' for Active; 'I' for Inactive)
REMARK    1  A    between atoms: C_2  and  C_3
REMARK    2  A    between atoms: C_5  and  O_6
REMARK    3  A    between atoms: O_6  and  C_7
REMARK    4  A    between atoms: C_10  and  C_11
REMARK    5  A    between atoms: C_12  and  C_13
REMARK    6  A    between atoms: C_18  and  O_19
REMARK    7  A    between atoms: O_19  and  C_20
REMARK    8  A    between atoms: C_22  and  C_23
REMARK                            x       y       z     vdW  Elec       q    Type
REMARK                         _______ _______ _______ _____ _____    ______ ____
ROOT
ATOM      1  C   UNL     1     -23.678   9.640  -4.634  0.00  0.00    +0.000 C 
ATOM      2  C   UNL     1     -23.975   8.558  -3.938  0.00  0.00    +0.000 C 
ENDROOT
BRANCH   1   6
ATOM      3  C   UNL     1     -26.431   9.283  -7.785  0.00  0.00    +0.000 A 
ATOM      4  C   UNL     1     -25.465   8.311  -7.556  0.00  0.00    +0.000 A 
ATOM      5  C   UNL     1     -24.434   8.562  -6.660  0.00  0.00    +0.000 A 
ATOM      6  C   UNL     1     -24.371   9.741  -5.926  0.00  0.00    +0.000 A 
ATOM      7  C   UNL     1     -25.411  10.650  -6.037  0.00  0.00    +0.000 A 
ATOM      8  O   UNL     1     -25.925  11.314  -4.917  0.00  0.00    +0.000 OA
ATOM      9  C   UNL     1     -26.216  10.478  -7.117  0.00  0.00    +0.000 A 
BRANCH   3  10
ATOM     10  O   UNL     1     -27.438   9.088  -8.737  0.00  0.00    +0.000 OA
BRANCH  10  13
ATOM     11  C   UNL     1     -28.059   9.770 -10.631  0.00  0.00    +0.000 C 
ATOM     12  O   UNL     1     -28.785  10.730  -9.704  0.00  0.00    +0.000 OA
ATOM     13  C   UNL     1     -28.546  10.117  -8.303  0.00  0.00    +0.000 C 
ATOM     14  C   UNL     1     -29.900   9.015  -8.468  0.00  0.00    +0.000 C 
ATOM     15  O   UNL     1     -29.496   8.244  -7.238  0.00  0.00    +0.000 OA
ATOM     16  C   UNL     1     -29.117   7.908  -9.521  0.00  0.00    +0.000 C 
ATOM     17  O   UNL     1     -30.412   7.139  -9.646  0.00  0.00    +0.000 OA
ATOM     18  C   UNL     1     -29.536   8.888 -10.878  0.00  0.00    +0.000 C 
ATOM     19  O   UNL     1     -28.876   7.932 -11.836  0.00  0.00    +0.000 OA
BRANCH  11  21
ATOM     20  O   UNL     1     -27.861  11.517 -11.769  0.00  0.00    +0.000 OA
ATOM     21  C   UNL     1     -28.358  10.764 -11.928  0.00  0.00    +0.000 C 
ENDBRANCH  11  21
ENDBRANCH  10  13
ENDBRANCH   3  10
ENDBRANCH   1   6
BRANCH   2  22
ATOM     22  C   UNL     1     -23.747   8.445  -2.490  0.00  0.00    +0.000 A 
ATOM     23  C   UNL     1     -22.421   8.350  -2.085  0.00  0.00    +0.000 A 
ATOM     24  C   UNL     1     -22.067   7.717  -0.920  0.00  0.00    +0.000 A 
ATOM     25  O   UNL     1     -20.989   8.176  -0.170  0.00  0.00    +0.000 OA
ATOM     26  C   UNL     1     -22.964   6.771  -0.439  0.00  0.00    +0.000 A 
ATOM     27  C   UNL     1     -24.324   6.948  -0.679  0.00  0.00    +0.000 A 
ATOM     28  C   UNL     1     -24.660   7.668  -1.811  0.00  0.00    +0.000 A 
BRANCH  27  29
ATOM     29  O   UNL     1     -25.319   6.608   0.165  0.00  0.00    +0.000 OA
BRANCH  29  30
ATOM     30  C   UNL     1     -25.379   5.144   0.728  0.00  0.00    +0.000 C 
ATOM     31  O   UNL     1     -25.817   4.488  -0.613  0.00  0.00    +0.000 OA
ATOM     32  C   UNL     1     -25.718   3.083  -0.013  0.00  0.00    +0.000 C 
ATOM     33  C   UNL     1     -27.395   3.074   0.451  0.00  0.00    +0.000 C 
ATOM     34  O   UNL     1     -27.276   1.713   1.091  0.00  0.00    +0.000 OA
ATOM     35  C   UNL     1     -27.034   3.841   1.954  0.00  0.00    +0.000 C 
ATOM     36  O   UNL     1     -28.513   3.935   2.264  0.00  0.00    +0.000 OA
ATOM     37  C   UNL     1     -27.059   5.375   1.174  0.00  0.00    +0.000 C 
ATOM     38  O   UNL     1     -26.690   6.102   2.437  0.00  0.00    +0.000 OA
BRANCH  32  39
ATOM     39  C   UNL     1     -26.079   2.345  -1.454  0.00  0.00    +0.000 C 
ATOM     40  O   UNL     1     -24.917   1.813  -1.927  0.00  0.00    +0.000 OA
ENDBRANCH  32  39
ENDBRANCH  29  30
ENDBRANCH  27  29
ENDBRANCH   2  22
TORSDOF 8
ENDMDL
MODEL 9
REMARK VINA RESULT:      -7.4      1.314      2.257
REMARK  Name = 
REMARK  8 active torsions:
REMARK  status: ('A' for Active; 'I' for Inactive)
REMARK    1  A    between atoms: C_2  and  C_3
REMARK    2  A    between atoms: C_5  and  O_6
REMARK    3  A    between atoms: O_6  and  C_7
REMARK    4  A    between atoms: C_10  and  C_11
REMARK    5  A    between atoms: C_12  and  C_13
REMARK    6  A    between atoms: C_18  and  O_19
REMARK    7  A    between atoms: O_19  and  C_20
REMARK    8  A    between atoms: C_22  and  C_23
REMARK                            x       y       z     vdW  Elec       q    Type
REMARK                         _______ _______ _______ _____ _____    ______ ____
ROOT
ATOM      1  C   UNL     1     -25.978   9.830  -4.999  0.00  0.00    +0.000 C 
ATOM      2  C   UNL     1     -24.898   9.420  -4.360  0.00  0.00    +0.000 C 
ENDROOT
BRANCH   1   6
ATOM      3  C   UNL     1     -27.749   8.352  -8.509  0.00  0.00    +0.000 A 
ATOM      4  C   UNL     1     -28.023   7.788  -7.269  0.00  0.00    +0.000 A 
ATOM      5  C   UNL     1     -27.256   8.145  -6.166  0.00  0.00    +0.000 A 
ATOM      6  C   UNL     1     -26.256   9.106  -6.247  0.00  0.00    +0.000 A 
ATOM      7  C   UNL     1     -26.078   9.782  -7.445  0.00  0.00    +0.000 A 
ATOM      8  O   UNL     1     -25.834  11.160  -7.478  0.00  0.00    +0.000 OA
ATOM      9  C   UNL     1     -26.650   9.196  -8.529  0.00  0.00    +0.000 A 
BRANCH   3  10
ATOM     10  O   UNL     1     -28.454   7.957  -9.651  0.00  0.00    +0.000 OA
BRANCH  10  13
ATOM     11  C   UNL     1     -28.878   6.056 -10.456  0.00  0.00    +0.000 C 
ATOM     12  O   UNL     1     -27.558   6.392 -11.133  0.00  0.00    +0.000 OA
ATOM     13  C   UNL     1     -27.333   7.875 -10.753  0.00  0.00    +0.000 C 
ATOM     14  C   UNL     1     -28.331   8.447 -12.077  0.00  0.00    +0.000 C 
ATOM     15  O   UNL     1     -28.333   9.856 -11.542  0.00  0.00    +0.000 OA
ATOM     16  C   UNL     1     -29.841   8.079 -11.350  0.00  0.00    +0.000 C 
ATOM     17  O   UNL     1     -30.536   8.502 -12.623  0.00  0.00    +0.000 OA
ATOM     18  C   UNL     1     -29.730   6.453 -11.918  0.00  0.00    +0.000 C 
ATOM     19  O   UNL     1     -31.061   6.097 -11.310  0.00  0.00    +0.000 OA
BRANCH  11  21
ATOM     20  O   UNL     1     -28.611   4.007 -10.113  0.00  0.00    +0.000 OA
ATOM     21  C   UNL     1     -28.724   4.463 -10.900  0.00  0.00    +0.000 C 
ENDBRANCH  11  21
ENDBRANCH  10  13
ENDBRANCH   3  10
ENDBRANCH   1   6
BRANCH   2  22
ATOM     22  C   UNL     1     -24.657   9.688  -2.934  0.00  0.00    +0.000 A 
ATOM     23  C   UNL     1     -23.365  10.068  -2.593  0.00  0.00    +0.000 A 
ATOM     24  C   UNL     1     -22.849   9.827  -1.345  0.00  0.00    +0.000 A 
ATOM     25  O   UNL     1     -21.959  10.727  -0.766  0.00  0.00    +0.000 OA
ATOM     26  C   UNL     1     -23.431   8.788  -0.630  0.00  0.00    +0.000 A 
ATOM     27  C   UNL     1     -24.781   8.509  -0.825  0.00  0.00    +0.000 A 
ATOM     28  C   UNL     1     -25.306   8.843  -2.060  0.00  0.00    +0.000 A 
BRANCH  27  29
ATOM     29  O   UNL     1     -25.639   8.083   0.125  0.00  0.00    +0.000 OA
BRANCH  29  30
ATOM     30  C   UNL     1     -25.542   6.602   0.633  0.00  0.00    +0.000 C 
ATOM     31  O   UNL     1     -26.066   5.959  -0.683  0.00  0.00    +0.000 OA
ATOM     32  C   UNL     1     -25.814   4.547  -0.149  0.00  0.00    +0.000 C 
ATOM     33  C   UNL     1     -27.431   4.403   0.474  0.00  0.00    +0.000 C 
ATOM     34  O   UNL     1     -27.157   3.034   1.046  0.00  0.00    +0.000 OA
ATOM     35  C   UNL     1     -26.976   5.146   1.963  0.00  0.00    +0.000 C 
ATOM     36  O   UNL     1     -28.420   5.125   2.419  0.00  0.00    +0.000 OA
ATOM     37  C   UNL     1     -27.182   6.698   1.249  0.00  0.00    +0.000 C 
ATOM     38  O   UNL     1     -26.739   7.409   2.498  0.00  0.00    +0.000 OA
BRANCH  32  39
ATOM     39  C   UNL     1     -26.266   3.830  -1.576  0.00  0.00    +0.000 C 
ATOM     40  O   UNL     1     -25.151   3.237  -2.090  0.00  0.00    +0.000 OA
ENDBRANCH  32  39
ENDBRANCH  29  30
ENDBRANCH  27  29
ENDBRANCH   2  22
TORSDOF 8
ENDMDL
MODEL 10
REMARK VINA RESULT:      -7.3      3.715      7.100
REMARK  Name = 
REMARK  8 active torsions:
REMARK  status: ('A' for Active; 'I' for Inactive)
REMARK    1  A    between atoms: C_2  and  C_3
REMARK    2  A    between atoms: C_5  and  O_6
REMARK    3  A    between atoms: O_6  and  C_7
REMARK    4  A    between atoms: C_10  and  C_11
REMARK    5  A    between atoms: C_12  and  C_13
REMARK    6  A    between atoms: C_18  and  O_19
REMARK    7  A    between atoms: O_19  and  C_20
REMARK    8  A    between atoms: C_22  and  C_23
REMARK                            x       y       z     vdW  Elec       q    Type
REMARK                         _______ _______ _______ _____ _____    ______ ____
ROOT
ATOM      1  C   UNL     1     -24.903   9.468  -5.545  0.00  0.00    +0.000 C 
ATOM      2  C   UNL     1     -24.063   8.747  -4.824  0.00  0.00    +0.000 C 
ENDROOT
BRANCH   1   6
ATOM      3  C   UNL     1     -27.498   8.117  -8.558  0.00  0.00    +0.000 A 
ATOM      4  C   UNL     1     -27.947   8.942  -7.534  0.00  0.00    +0.000 A 
ATOM      5  C   UNL     1     -27.130   9.184  -6.437  0.00  0.00    +0.000 A 
ATOM      6  C   UNL     1     -25.839   8.678  -6.357  0.00  0.00    +0.000 A 
ATOM      7  C   UNL     1     -25.330   7.980  -7.442  0.00  0.00    +0.000 A 
ATOM      8  O   UNL     1     -24.013   8.166  -7.879  0.00  0.00    +0.000 OA
ATOM      9  C   UNL     1     -26.256   7.544  -8.334  0.00  0.00    +0.000 A 
BRANCH   3  10
ATOM     10  O   UNL     1     -28.326   7.793  -9.638  0.00  0.00    +0.000 OA
BRANCH  10  13
ATOM     11  C   UNL     1     -29.047   5.935 -10.322  0.00  0.00    +0.000 C 
ATOM     12  O   UNL     1     -27.746   6.066 -11.097  0.00  0.00    +0.000 OA
ATOM     13  C   UNL     1     -27.305   7.521 -10.804  0.00  0.00    +0.000 C 
ATOM     14  C   UNL     1     -28.310   8.167 -12.088  0.00  0.00    +0.000 C 
ATOM     15  O   UNL     1     -28.093   9.583 -11.623  0.00  0.00    +0.000 OA
ATOM     16  C   UNL     1     -29.801   8.030 -11.250  0.00  0.00    +0.000 C 
ATOM     17  O   UNL     1     -30.523   8.490 -12.494  0.00  0.00    +0.000 OA
ATOM     18  C   UNL     1     -29.940   6.383 -11.744  0.00  0.00    +0.000 C 
ATOM     19  O   UNL     1     -31.261   6.229 -11.036  0.00  0.00    +0.000 OA
BRANCH  11  21
ATOM     20  O   UNL     1     -28.460   3.927 -10.213  0.00  0.00    +0.000 OA
ATOM     21  C   UNL     1     -29.131   4.319 -10.697  0.00  0.00    +0.000 C 
ENDBRANCH  11  21
ENDBRANCH  10  13
ENDBRANCH   3  10
ENDBRANCH   1   6
BRANCH   2  22
ATOM     22  C   UNL     1     -23.345   9.278  -3.657  0.00  0.00    +0.000 A 
ATOM     23  C   UNL     1     -23.791   8.844  -2.415  0.00  0.00    +0.000 A 
ATOM     24  C   UNL     1     -23.632   9.607  -1.285  0.00  0.00    +0.000 A 
ATOM     25  O   UNL     1     -23.401   8.999  -0.054  0.00  0.00    +0.000 OA
ATOM     26  C   UNL     1     -23.487  10.974  -1.483  0.00  0.00    +0.000 A 
ATOM     27  C   UNL     1     -22.872  11.425  -2.647  0.00  0.00    +0.000 A 
ATOM     28  C   UNL     1     -22.966  10.599  -3.752  0.00  0.00    +0.000 A 
BRANCH  27  29
ATOM     29  O   UNL     1     -22.080  12.513  -2.744  0.00  0.00    +0.000 OA
BRANCH  29  30
ATOM     30  C   UNL     1     -22.709  13.878  -3.196  0.00  0.00    +0.000 C 
ATOM     31  O   UNL     1     -21.583  14.232  -4.210  0.00  0.00    +0.000 OA
ATOM     32  C   UNL     1     -22.335  15.478  -4.683  0.00  0.00    +0.000 C 
ATOM     33  C   UNL     1     -21.520  16.505  -3.539  0.00  0.00    +0.000 C 
ATOM     34  O   UNL     1     -22.306  17.718  -3.972  0.00  0.00    +0.000 OA
ATOM     35  C   UNL     1     -22.687  16.152  -2.317  0.00  0.00    +0.000 C 
ATOM     36  O   UNL     1     -21.880  16.947  -1.313  0.00  0.00    +0.000 OA
ATOM     37  C   UNL     1     -21.835  14.711  -1.922  0.00  0.00    +0.000 C 
ATOM     38  O   UNL     1     -22.846  14.314  -0.883  0.00  0.00    +0.000 OA
BRANCH  32  39
ATOM     39  C   UNL     1     -21.206  15.827  -5.848  0.00  0.00    +0.000 C 
ATOM     40  O   UNL     1     -20.703  14.635  -6.278  0.00  0.00    +0.000 OA
ENDBRANCH  32  39
ENDBRANCH  29  30
ENDBRANCH  27  29
ENDBRANCH   2  22
TORSDOF 8
ENDMDL
