MODEL 1
REMARK VINA RESULT:      -8.0      0.000      0.000
REMARK  Name = 
REMARK  5 active torsions:
REMARK  status: ('A' for Active; 'I' for Inactive)
REMARK    1  A    between atoms: C_2  and  C_3
REMARK    2  A    between atoms: C_5  and  O_6
REMARK    3  A    between atoms: O_6  and  C_7
REMARK    4  A    between atoms: C_13  and  C_14
REMARK    5  A    between atoms: C_15  and  C_16
REMARK                            x       y       z     vdW  Elec       q    Type
REMARK                         _______ _______ _______ _____ _____    ______ ____
ROOT
ATOM      1  C   UNL     1     -18.530  -5.753   7.814  0.00  0.00    +0.000 A 
ATOM      2  C   UNL     1     -19.388  -6.082   8.854  0.00  0.00    +0.000 A 
ATOM      3  C   UNL     1     -20.482  -5.303   9.214  0.00  0.00    +0.000 A 
ATOM      4  O   UNL     1     -21.579  -5.851   9.878  0.00  0.00    +0.000 OA
ATOM      5  C   UNL     1     -20.551  -4.011   8.716  0.00  0.00    +0.000 A 
ATOM      6  C   UNL     1     -19.649  -3.576   7.787  0.00  0.00    +0.000 A 
ATOM      7  C   UNL     1     -18.522  -4.368   7.591  0.00  0.00    +0.000 A 
ENDROOT
BRANCH   7   8
ATOM      8  C   UNL     1     -17.223  -3.809   7.184  0.00  0.00    +0.000 C 
ATOM      9  C   UNL     1     -17.041  -2.839   6.330  0.00  0.00    +0.000 C 
BRANCH   9  10
ATOM     10  C   UNL     1     -16.632  -1.468   6.678  0.00  0.00    +0.000 A 
ATOM     11  C   UNL     1     -17.533  -0.512   7.108  0.00  0.00    +0.000 A 
ATOM     12  C   UNL     1     -17.329   0.850   6.918  0.00  0.00    +0.000 A 
ATOM     13  O   UNL     1     -17.895   1.810   7.741  0.00  0.00    +0.000 OA
ATOM     14  C   UNL     1     -16.315   1.199   6.058  0.00  0.00    +0.000 A 
ATOM     15  C   UNL     1     -15.320   0.301   5.687  0.00  0.00    +0.000 A 
ATOM     16  O   UNL     1     -14.482   0.548   4.594  0.00  0.00    +0.000 OA
ATOM     17  C   UNL     1     -15.397  -0.943   6.305  0.00  0.00    +0.000 A 
ENDBRANCH   9  10
ENDBRANCH   7   8
BRANCH   1  18
ATOM     18  O   UNL     1     -18.316  -6.383   6.648  0.00  0.00    +0.000 OA
BRANCH  18  21
ATOM     19  C   UNL     1     -17.835  -9.600   5.801  0.00  0.00    +0.000 C 
ATOM     20  O   UNL     1     -17.288  -8.337   6.443  0.00  0.00    +0.000 OA
ATOM     21  C   UNL     1     -18.754  -7.868   6.412  0.00  0.00    +0.000 C 
ATOM     22  C   UNL     1     -18.916  -7.638   4.675  0.00  0.00    +0.000 C 
ATOM     23  O   UNL     1     -19.312  -9.072   4.376  0.00  0.00    +0.000 OA
ATOM     24  C   UNL     1     -17.296  -7.694   4.082  0.00  0.00    +0.000 C 
ATOM     25  O   UNL     1     -16.625  -6.952   5.236  0.00  0.00    +0.000 OA
ATOM     26  C   UNL     1     -16.741  -9.278   4.507  0.00  0.00    +0.000 C 
ATOM     27  O   UNL     1     -17.564  -9.933   3.417  0.00  0.00    +0.000 OA
BRANCH  19  29
ATOM     28  O   UNL     1     -16.598 -10.526   6.998  0.00  0.00    +0.000 OA
ATOM     29  C   UNL     1     -16.685 -10.520   6.584  0.00  0.00    +0.000 C 
ENDBRANCH  19  29
ENDBRANCH  18  21
ENDBRANCH   1  18
TORSDOF 5
ENDMDL
MODEL 2
REMARK VINA RESULT:      -7.4     18.352     20.530
REMARK  Name = 
REMARK  5 active torsions:
REMARK  status: ('A' for Active; 'I' for Inactive)
REMARK    1  A    between atoms: C_2  and  C_3
REMARK    2  A    between atoms: C_5  and  O_6
REMARK    3  A    between atoms: O_6  and  C_7
REMARK    4  A    between atoms: C_13  and  C_14
REMARK    5  A    between atoms: C_15  and  C_16
REMARK                            x       y       z     vdW  Elec       q    Type
REMARK                         _______ _______ _______ _____ _____    ______ ____
ROOT
ATOM      1  C   UNL     1     -32.495  -6.085  -4.038  0.00  0.00    +0.000 A 
ATOM      2  C   UNL     1     -31.385  -6.894  -4.232  0.00  0.00    +0.000 A 
ATOM      3  C   UNL     1     -30.376  -7.041  -3.286  0.00  0.00    +0.000 A 
ATOM      4  O   UNL     1     -29.566  -8.176  -3.257  0.00  0.00    +0.000 OA
ATOM      5  C   UNL     1     -30.327  -6.131  -2.242  0.00  0.00    +0.000 A 
ATOM      6  C   UNL     1     -31.324  -5.213  -2.074  0.00  0.00    +0.000 A 
ATOM      7  C   UNL     1     -32.210  -5.051  -3.134  0.00  0.00    +0.000 A 
ENDROOT
BRANCH   7   8
ATOM      8  C   UNL     1     -32.878  -3.771  -3.419  0.00  0.00    +0.000 C 
ATOM      9  C   UNL     1     -32.703  -3.038  -4.485  0.00  0.00    +0.000 C 
BRANCH   9  10
ATOM     10  C   UNL     1     -33.676  -2.886  -5.580  0.00  0.00    +0.000 A 
ATOM     11  C   UNL     1     -34.898  -2.265  -5.406  0.00  0.00    +0.000 A 
ATOM     12  C   UNL     1     -36.012  -2.570  -6.179  0.00  0.00    +0.000 A 
ATOM     13  O   UNL     1     -37.040  -1.667  -6.393  0.00  0.00    +0.000 OA
ATOM     14  C   UNL     1     -35.921  -3.698  -6.959  0.00  0.00    +0.000 A 
ATOM     15  C   UNL     1     -34.700  -4.293  -7.255  0.00  0.00    +0.000 A 
ATOM     16  O   UNL     1     -34.625  -5.591  -7.776  0.00  0.00    +0.000 OA
ATOM     17  C   UNL     1     -33.587  -3.621  -6.761  0.00  0.00    +0.000 A 
ENDBRANCH   9  10
ENDBRANCH   7   8
BRANCH   1  18
ATOM     18  O   UNL     1     -33.790  -6.422  -3.922  0.00  0.00    +0.000 OA
BRANCH  18  21
ATOM     19  C   UNL     1     -35.969  -8.623  -5.226  0.00  0.00    +0.000 C 
ATOM     20  O   UNL     1     -35.301  -7.261  -5.310  0.00  0.00    +0.000 OA
ATOM     21  C   UNL     1     -34.314  -7.851  -4.285  0.00  0.00    +0.000 C 
ATOM     22  C   UNL     1     -35.389  -7.909  -2.894  0.00  0.00    +0.000 C 
ATOM     23  O   UNL     1     -35.962  -9.278  -3.210  0.00  0.00    +0.000 OA
ATOM     24  C   UNL     1     -36.747  -6.952  -3.360  0.00  0.00    +0.000 C 
ATOM     25  O   UNL     1     -35.988  -5.870  -4.124  0.00  0.00    +0.000 OA
ATOM     26  C   UNL     1     -37.388  -7.768  -4.745  0.00  0.00    +0.000 C 
ATOM     27  O   UNL     1     -37.982  -8.879  -3.901  0.00  0.00    +0.000 OA
BRANCH  19  29
ATOM     28  O   UNL     1     -36.181  -8.615  -7.169  0.00  0.00    +0.000 OA
ATOM     29  C   UNL     1     -36.416  -8.525  -6.830  0.00  0.00    +0.000 C 
ENDBRANCH  19  29
ENDBRANCH  18  21
ENDBRANCH   1  18
TORSDOF 5
ENDMDL
MODEL 3
REMARK VINA RESULT:      -7.3     16.048     19.779
REMARK  Name = 
REMARK  5 active torsions:
REMARK  status: ('A' for Active; 'I' for Inactive)
REMARK    1  A    between atoms: C_2  and  C_3
REMARK    2  A    between atoms: C_5  and  O_6
REMARK    3  A    between atoms: O_6  and  C_7
REMARK    4  A    between atoms: C_13  and  C_14
REMARK    5  A    between atoms: C_15  and  C_16
REMARK                            x       y       z     vdW  Elec       q    Type
REMARK                         _______ _______ _______ _____ _____    ______ ____
ROOT
ATOM      1  C   UNL     1     -23.061   9.637  -4.222  0.00  0.00    +0.000 A 
ATOM      2  C   UNL     1     -22.417  10.785  -3.786  0.00  0.00    +0.000 A 
ATOM      3  C   UNL     1     -22.994  12.050  -3.842  0.00  0.00    +0.000 A 
ATOM      4  O   UNL     1     -22.585  13.074  -2.988  0.00  0.00    +0.000 OA
ATOM      5  C   UNL     1     -24.127  12.213  -4.623  0.00  0.00    +0.000 A 
ATOM      6  C   UNL     1     -24.735  11.133  -5.197  0.00  0.00    +0.000 A 
ATOM      7  C   UNL     1     -24.018   9.940  -5.201  0.00  0.00    +0.000 A 
ENDROOT
BRANCH   7   8
ATOM      8  C   UNL     1     -24.171   8.928  -6.260  0.00  0.00    +0.000 C 
ATOM      9  C   UNL     1     -25.298   8.547  -6.796  0.00  0.00    +0.000 C 
BRANCH   9  10
ATOM     10  C   UNL     1     -25.752   8.892  -8.153  0.00  0.00    +0.000 A 
ATOM     11  C   UNL     1     -26.794   9.769  -8.387  0.00  0.00    +0.000 A 
ATOM     12  C   UNL     1     -27.588   9.705  -9.525  0.00  0.00    +0.000 A 
ATOM     13  O   UNL     1     -28.256  10.808 -10.032  0.00  0.00    +0.000 OA
ATOM     14  C   UNL     1     -27.458   8.573 -10.295  0.00  0.00    +0.000 A 
ATOM     15  C   UNL     1     -26.367   7.721 -10.174  0.00  0.00    +0.000 A 
ATOM     16  O   UNL     1     -26.381   6.431 -10.719  0.00  0.00    +0.000 OA
ATOM     17  C   UNL     1     -25.395   8.140  -9.271  0.00  0.00    +0.000 A 
ENDBRANCH   9  10
ENDBRANCH   7   8
BRANCH   1  18
ATOM     18  O   UNL     1     -23.479   8.570  -3.521  0.00  0.00    +0.000 OA
BRANCH  18  21
ATOM     19  C   UNL     1     -22.903   6.904  -0.659  0.00  0.00    +0.000 C 
ATOM     20  O   UNL     1     -22.672   7.020  -2.156  0.00  0.00    +0.000 OA
ATOM     21  C   UNL     1     -23.237   8.442  -1.979  0.00  0.00    +0.000 C 
ATOM     22  C   UNL     1     -24.914   8.016  -1.661  0.00  0.00    +0.000 C 
ATOM     23  O   UNL     1     -24.738   7.842  -0.164  0.00  0.00    +0.000 OA
ATOM     24  C   UNL     1     -25.026   6.351  -2.098  0.00  0.00    +0.000 C 
ATOM     25  O   UNL     1     -24.110   6.394  -3.320  0.00  0.00    +0.000 OA
ATOM     26  C   UNL     1     -23.912   5.557  -1.037  0.00  0.00    +0.000 C 
ATOM     27  O   UNL     1     -24.841   5.697   0.153  0.00  0.00    +0.000 OA
BRANCH  19  29
ATOM     28  O   UNL     1     -21.194   6.006  -0.358  0.00  0.00    +0.000 OA
ATOM     29  C   UNL     1     -21.575   5.907  -0.512  0.00  0.00    +0.000 C 
ENDBRANCH  19  29
ENDBRANCH  18  21
ENDBRANCH   1  18
TORSDOF 5
ENDMDL
MODEL 4
REMARK VINA RESULT:      -7.2     18.474     20.704
REMARK  Name = 
REMARK  5 active torsions:
REMARK  status: ('A' for Active; 'I' for Inactive)
REMARK    1  A    between atoms: C_2  and  C_3
REMARK    2  A    between atoms: C_5  and  O_6
REMARK    3  A    between atoms: O_6  and  C_7
REMARK    4  A    between atoms: C_13  and  C_14
REMARK    5  A    between atoms: C_15  and  C_16
REMARK                            x       y       z     vdW  Elec       q    Type
REMARK                         _______ _______ _______ _____ _____    ______ ____
ROOT
ATOM      1  C   UNL     1     -34.239  -6.076  -5.016  0.00  0.00    +0.000 A 
ATOM      2  C   UNL     1     -34.659  -7.278  -5.569  0.00  0.00    +0.000 A 
ATOM      3  C   UNL     1     -35.190  -8.319  -4.816  0.00  0.00    +0.000 A 
ATOM      4  O   UNL     1     -36.038  -9.269  -5.384  0.00  0.00    +0.000 OA
ATOM      5  C   UNL     1     -35.027  -8.274  -3.440  0.00  0.00    +0.000 A 
ATOM      6  C   UNL     1     -34.490  -7.170  -2.841  0.00  0.00    +0.000 A 
ATOM      7  C   UNL     1     -33.868  -6.246  -3.674  0.00  0.00    +0.000 A 
ENDROOT
BRANCH   7   8
ATOM      8  C   UNL     1     -32.740  -5.412  -3.228  0.00  0.00    +0.000 C 
ATOM      9  C   UNL     1     -31.514  -5.819  -3.043  0.00  0.00    +0.000 C 
BRANCH   9  10
ATOM     10  C   UNL     1     -30.374  -5.506  -3.920  0.00  0.00    +0.000 A 
ATOM     11  C   UNL     1     -29.259  -4.821  -3.473  0.00  0.00    +0.000 A 
ATOM     12  C   UNL     1     -28.466  -4.049  -4.313  0.00  0.00    +0.000 A 
ATOM     13  O   UNL     1     -27.130  -3.794  -4.050  0.00  0.00    +0.000 OA
ATOM     14  C   UNL     1     -28.978  -3.786  -5.562  0.00  0.00    +0.000 A 
ATOM     15  C   UNL     1     -30.025  -4.525  -6.100  0.00  0.00    +0.000 A 
ATOM     16  O   UNL     1     -30.743  -4.074  -7.214  0.00  0.00    +0.000 OA
ATOM     17  C   UNL     1     -30.460  -5.583  -5.309  0.00  0.00    +0.000 A 
ENDBRANCH   9  10
ENDBRANCH   7   8
BRANCH   1  18
ATOM     18  O   UNL     1     -34.734  -4.839  -5.178  0.00  0.00    +0.000 OA
BRANCH  18  21
ATOM     19  C   UNL     1     -37.331  -3.200  -6.545  0.00  0.00    +0.000 C 
ATOM     20  O   UNL     1     -35.891  -3.669  -6.664  0.00  0.00    +0.000 OA
ATOM     21  C   UNL     1     -36.249  -4.582  -5.477  0.00  0.00    +0.000 C 
ATOM     22  C   UNL     1     -36.380  -3.349  -4.230  0.00  0.00    +0.000 C 
ATOM     23  O   UNL     1     -37.839  -3.030  -4.494  0.00  0.00    +0.000 OA
ATOM     24  C   UNL     1     -35.679  -1.942  -4.942  0.00  0.00    +0.000 C 
ATOM     25  O   UNL     1     -34.546  -2.633  -5.698  0.00  0.00    +0.000 OA
ATOM     26  C   UNL     1     -36.677  -1.620  -6.319  0.00  0.00    +0.000 C 
ATOM     27  O   UNL     1     -37.806  -1.086  -5.461  0.00  0.00    +0.000 OA
BRANCH  19  29
ATOM     28  O   UNL     1     -37.552  -3.236  -8.486  0.00  0.00    +0.000 OA
ATOM     29  C   UNL     1     -37.412  -2.965  -8.194  0.00  0.00    +0.000 C 
ENDBRANCH  19  29
ENDBRANCH  18  21
ENDBRANCH   1  18
TORSDOF 5
ENDMDL
MODEL 5
REMARK VINA RESULT:      -7.1     20.014     22.554
REMARK  Name = 
REMARK  5 active torsions:
REMARK  status: ('A' for Active; 'I' for Inactive)
REMARK    1  A    between atoms: C_2  and  C_3
REMARK    2  A    between atoms: C_5  and  O_6
REMARK    3  A    between atoms: O_6  and  C_7
REMARK    4  A    between atoms: C_13  and  C_14
REMARK    5  A    between atoms: C_15  and  C_16
REMARK                            x       y       z     vdW  Elec       q    Type
REMARK                         _______ _______ _______ _____ _____    ______ ____
ROOT
ATOM      1  C   UNL     1     -34.815  -4.070  -6.336  0.00  0.00    +0.000 A 
ATOM      2  C   UNL     1     -35.157  -2.727  -6.265  0.00  0.00    +0.000 A 
ATOM      3  C   UNL     1     -36.455  -2.262  -6.445  0.00  0.00    +0.000 A 
ATOM      4  O   UNL     1     -36.875  -1.048  -5.901  0.00  0.00    +0.000 OA
ATOM      5  C   UNL     1     -37.384  -3.128  -7.001  0.00  0.00    +0.000 A 
ATOM      6  C   UNL     1     -37.066  -4.436  -7.225  0.00  0.00    +0.000 A 
ATOM      7  C   UNL     1     -35.718  -4.775  -7.144  0.00  0.00    +0.000 A 
ENDROOT
BRANCH   7   8
ATOM      8  C   UNL     1     -35.127  -5.864  -7.938  0.00  0.00    +0.000 C 
ATOM      9  C   UNL     1     -35.728  -6.969  -8.289  0.00  0.00    +0.000 C 
BRANCH   9  10
ATOM     10  C   UNL     1     -36.188  -7.288  -9.650  0.00  0.00    +0.000 A 
ATOM     11  C   UNL     1     -35.321  -7.671 -10.656  0.00  0.00    +0.000 A 
ATOM     12  C   UNL     1     -35.586  -7.448 -12.002  0.00  0.00    +0.000 A 
ATOM     13  O   UNL     1     -35.045  -8.231 -13.008  0.00  0.00    +0.000 OA
ATOM     14  C   UNL     1     -36.633  -6.602 -12.283  0.00  0.00    +0.000 A 
ATOM     15  C   UNL     1     -37.595  -6.278 -11.334  0.00  0.00    +0.000 A 
ATOM     16  O   UNL     1     -38.466  -5.197 -11.514  0.00  0.00    +0.000 OA
ATOM     17  C   UNL     1     -37.452  -6.928 -10.112  0.00  0.00    +0.000 A 
ENDBRANCH   9  10
ENDBRANCH   7   8
BRANCH   1  18
ATOM     18  O   UNL     1     -34.359  -4.889  -5.375  0.00  0.00    +0.000 OA
BRANCH  18  21
ATOM     19  C   UNL     1     -31.374  -5.186  -3.859  0.00  0.00    +0.000 C 
ATOM     20  O   UNL     1     -32.209  -5.364  -5.116  0.00  0.00    +0.000 OA
ATOM     21  C   UNL     1     -33.222  -4.462  -4.387  0.00  0.00    +0.000 C 
ATOM     22  C   UNL     1     -33.743  -5.601  -3.152  0.00  0.00    +0.000 C 
ATOM     23  O   UNL     1     -32.644  -5.256  -2.164  0.00  0.00    +0.000 OA
ATOM     24  C   UNL     1     -33.133  -7.124  -3.688  0.00  0.00    +0.000 C 
ATOM     25  O   UNL     1     -33.373  -6.931  -5.184  0.00  0.00    +0.000 OA
ATOM     26  C   UNL     1     -31.416  -6.905  -3.727  0.00  0.00    +0.000 C 
ATOM     27  O   UNL     1     -31.306  -6.966  -2.216  0.00  0.00    +0.000 OA
BRANCH  19  29
ATOM     28  O   UNL     1     -29.775  -4.942  -4.956  0.00  0.00    +0.000 OA
ATOM     29  C   UNL     1     -29.970  -5.259  -4.757  0.00  0.00    +0.000 C 
ENDBRANCH  19  29
ENDBRANCH  18  21
ENDBRANCH   1  18
TORSDOF 5
ENDMDL
MODEL 6
REMARK VINA RESULT:      -7.0      2.463      3.867
REMARK  Name = 
REMARK  5 active torsions:
REMARK  status: ('A' for Active; 'I' for Inactive)
REMARK    1  A    between atoms: C_2  and  C_3
REMARK    2  A    between atoms: C_5  and  O_6
REMARK    3  A    between atoms: O_6  and  C_7
REMARK    4  A    between atoms: C_13  and  C_14
REMARK    5  A    between atoms: C_15  and  C_16
REMARK                            x       y       z     vdW  Elec       q    Type
REMARK                         _______ _______ _______ _____ _____    ______ ____
ROOT
ATOM      1  C   UNL     1     -18.778  -7.966   8.771  0.00  0.00    +0.000 A 
ATOM      2  C   UNL     1     -18.250  -8.832   9.719  0.00  0.00    +0.000 A 
ATOM      3  C   UNL     1     -19.003  -9.807  10.363  0.00  0.00    +0.000 A 
ATOM      4  O   UNL     1     -18.408 -10.947  10.903  0.00  0.00    +0.000 OA
ATOM      5  C   UNL     1     -20.384  -9.725  10.275  0.00  0.00    +0.000 A 
ATOM      6  C   UNL     1     -20.974  -8.800   9.462  0.00  0.00    +0.000 A 
ATOM      7  C   UNL     1     -20.156  -7.788   8.968  0.00  0.00    +0.000 A 
ENDROOT
BRANCH   7   8
ATOM      8  C   UNL     1     -20.660  -6.440   8.664  0.00  0.00    +0.000 C 
ATOM      9  C   UNL     1     -20.378  -5.350   9.324  0.00  0.00    +0.000 C 
BRANCH   9  10
ATOM     10  C   UNL     1     -19.498  -4.272   8.845  0.00  0.00    +0.000 A 
ATOM     11  C   UNL     1     -19.987  -3.064   8.383  0.00  0.00    +0.000 A 
ATOM     12  C   UNL     1     -19.308  -2.285   7.454  0.00  0.00    +0.000 A 
ATOM     13  O   UNL     1     -19.478  -0.913   7.365  0.00  0.00    +0.000 OA
ATOM     14  C   UNL     1     -18.246  -2.884   6.818  0.00  0.00    +0.000 A 
ATOM     15  C   UNL     1     -17.647  -4.038   7.309  0.00  0.00    +0.000 A 
ATOM     16  O   UNL     1     -16.789  -4.811   6.519  0.00  0.00    +0.000 OA
ATOM     17  C   UNL     1     -18.160  -4.492   8.520  0.00  0.00    +0.000 A 
ENDBRANCH   9  10
ENDBRANCH   7   8
BRANCH   1  18
ATOM     18  O   UNL     1     -18.509  -7.865   7.460  0.00  0.00    +0.000 OA
BRANCH  18  21
ATOM     19  C   UNL     1     -16.812  -9.108   4.838  0.00  0.00    +0.000 C 
ATOM     20  O   UNL     1     -17.196  -7.898   5.674  0.00  0.00    +0.000 OA
ATOM     21  C   UNL     1     -17.675  -8.947   6.695  0.00  0.00    +0.000 C 
ATOM     22  C   UNL     1     -19.079  -9.540   5.818  0.00  0.00    +0.000 C 
ATOM     23  O   UNL     1     -18.321 -10.585   5.021  0.00  0.00    +0.000 OA
ATOM     24  C   UNL     1     -19.319  -8.385   4.559  0.00  0.00    +0.000 C 
ATOM     25  O   UNL     1     -18.963  -7.131   5.354  0.00  0.00    +0.000 OA
ATOM     26  C   UNL     1     -17.860  -8.459   3.630  0.00  0.00    +0.000 C 
ATOM     27  O   UNL     1     -18.244  -9.784   3.004  0.00  0.00    +0.000 OA
BRANCH  19  29
ATOM     28  O   UNL     1     -15.116  -8.274   4.342  0.00  0.00    +0.000 OA
ATOM     29  C   UNL     1     -15.513  -8.279   4.200  0.00  0.00    +0.000 C 
ENDBRANCH  19  29
ENDBRANCH  18  21
ENDBRANCH   1  18
TORSDOF 5
ENDMDL
MODEL 7
REMARK VINA RESULT:      -6.8     35.706     39.432
REMARK  Name = 
REMARK  5 active torsions:
REMARK  status: ('A' for Active; 'I' for Inactive)
REMARK    1  A    between atoms: C_2  and  C_3
REMARK    2  A    between atoms: C_5  and  O_6
REMARK    3  A    between atoms: O_6  and  C_7
REMARK    4  A    between atoms: C_13  and  C_14
REMARK    5  A    between atoms: C_15  and  C_16
REMARK                            x       y       z     vdW  Elec       q    Type
REMARK                         _______ _______ _______ _____ _____    ______ ____
ROOT
ATOM      1  C   UNL     1     -12.449  18.587 -22.297  0.00  0.00    +0.000 A 
ATOM      2  C   UNL     1     -12.949  17.295 -22.379  0.00  0.00    +0.000 A 
ATOM      3  C   UNL     1     -14.046  16.855 -21.645  0.00  0.00    +0.000 A 
ATOM      4  O   UNL     1     -14.825  15.781 -22.076  0.00  0.00    +0.000 OA
ATOM      5  C   UNL     1     -14.474  17.637 -20.585  0.00  0.00    +0.000 A 
ATOM      6  C   UNL     1     -13.925  18.868 -20.364  0.00  0.00    +0.000 A 
ATOM      7  C   UNL     1     -12.754  19.163 -21.055  0.00  0.00    +0.000 A 
ENDROOT
BRANCH   7   8
ATOM      8  C   UNL     1     -11.721  20.063 -20.514  0.00  0.00    +0.000 C 
ATOM      9  C   UNL     1     -10.601  19.693 -19.956  0.00  0.00    +0.000 C 
BRANCH   9  10
ATOM     10  C   UNL     1      -9.267  19.815 -20.568  0.00  0.00    +0.000 A 
ATOM     11  C   UNL     1      -8.110  19.893 -19.816  0.00  0.00    +0.000 A 
ATOM     12  C   UNL     1      -6.964  20.536 -20.268  0.00  0.00    +0.000 A 
ATOM     13  O   UNL     1      -5.697  20.207 -19.814  0.00  0.00    +0.000 OA
ATOM     14  C   UNL     1      -7.105  21.313 -21.393  0.00  0.00    +0.000 A 
ATOM     15  C   UNL     1      -8.199  21.189 -22.242  0.00  0.00    +0.000 A 
ATOM     16  O   UNL     1      -8.500  22.169 -23.195  0.00  0.00    +0.000 OA
ATOM     17  C   UNL     1      -9.091  20.178 -21.902  0.00  0.00    +0.000 A 
ENDBRANCH   9  10
ENDBRANCH   7   8
BRANCH   1  18
ATOM     18  O   UNL     1     -12.414  19.552 -23.229  0.00  0.00    +0.000 OA
BRANCH  18  21
ATOM     19  C   UNL     1     -10.786  20.113 -26.115  0.00  0.00    +0.000 C 
ATOM     20  O   UNL     1     -10.776  20.153 -24.596  0.00  0.00    +0.000 OA
ATOM     21  C   UNL     1     -12.024  19.260 -24.716  0.00  0.00    +0.000 C 
ATOM     22  C   UNL     1     -13.145  20.463 -25.342  0.00  0.00    +0.000 C 
ATOM     23  O   UNL     1     -12.787  20.250 -26.800  0.00  0.00    +0.000 OA
ATOM     24  C   UNL     1     -12.338  21.969 -25.099  0.00  0.00    +0.000 C 
ATOM     25  O   UNL     1     -11.701  21.649 -23.748  0.00  0.00    +0.000 OA
ATOM     26  C   UNL     1     -10.893  21.834 -26.043  0.00  0.00    +0.000 C 
ATOM     27  O   UNL     1     -11.645  22.015 -27.346  0.00  0.00    +0.000 OA
BRANCH  19  29
ATOM     28  O   UNL     1      -8.847  19.927 -25.959  0.00  0.00    +0.000 OA
ATOM     29  C   UNL     1      -9.120  20.188 -26.147  0.00  0.00    +0.000 C 
ENDBRANCH  19  29
ENDBRANCH  18  21
ENDBRANCH   1  18
TORSDOF 5
ENDMDL
MODEL 8
REMARK VINA RESULT:      -6.7     30.052     34.543
REMARK  Name = 
REMARK  5 active torsions:
REMARK  status: ('A' for Active; 'I' for Inactive)
REMARK    1  A    between atoms: C_2  and  C_3
REMARK    2  A    between atoms: C_5  and  O_6
REMARK    3  A    between atoms: O_6  and  C_7
REMARK    4  A    between atoms: C_13  and  C_14
REMARK    5  A    between atoms: C_15  and  C_16
REMARK                            x       y       z     vdW  Elec       q    Type
REMARK                         _______ _______ _______ _____ _____    ______ ____
ROOT
ATOM      1  C   UNL     1     -17.519  19.197 -18.606  0.00  0.00    +0.000 A 
ATOM      2  C   UNL     1     -18.088  20.356 -19.116  0.00  0.00    +0.000 A 
ATOM      3  C   UNL     1     -18.232  21.523 -18.374  0.00  0.00    +0.000 A 
ATOM      4  O   UNL     1     -18.324  22.771 -18.991  0.00  0.00    +0.000 OA
ATOM      5  C   UNL     1     -18.074  21.443 -16.999  0.00  0.00    +0.000 A 
ATOM      6  C   UNL     1     -17.646  20.284 -16.417  0.00  0.00    +0.000 A 
ATOM      7  C   UNL     1     -17.660  19.142 -17.212  0.00  0.00    +0.000 A 
ENDROOT
BRANCH   7   8
ATOM      8  C   UNL     1     -17.872  17.795 -16.658  0.00  0.00    +0.000 C 
ATOM      9  C   UNL     1     -18.448  17.518 -15.520  0.00  0.00    +0.000 C 
BRANCH   9  10
ATOM     10  C   UNL     1     -19.791  16.934 -15.369  0.00  0.00    +0.000 A 
ATOM     11  C   UNL     1     -20.010  15.569 -15.356  0.00  0.00    +0.000 A 
ATOM     12  C   UNL     1     -21.209  14.998 -15.762  0.00  0.00    +0.000 A 
ATOM     13  O   UNL     1     -21.643  13.766 -15.299  0.00  0.00    +0.000 OA
ATOM     14  C   UNL     1     -22.087  15.827 -16.420  0.00  0.00    +0.000 A 
ATOM     15  C   UNL     1     -21.973  17.212 -16.367  0.00  0.00    +0.000 A 
ATOM     16  O   UNL     1     -22.657  18.037 -17.267  0.00  0.00    +0.000 OA
ATOM     17  C   UNL     1     -20.952  17.683 -15.548  0.00  0.00    +0.000 A 
ENDBRANCH   9  10
ENDBRANCH   7   8
BRANCH   1  18
ATOM     18  O   UNL     1     -16.381  18.577 -18.954  0.00  0.00    +0.000 OA
BRANCH  18  21
ATOM     19  C   UNL     1     -14.297  17.752 -21.459  0.00  0.00    +0.000 C 
ATOM     20  O   UNL     1     -15.145  17.302 -20.281  0.00  0.00    +0.000 OA
ATOM     21  C   UNL     1     -15.768  18.706 -20.390  0.00  0.00    +0.000 C 
ATOM     22  C   UNL     1     -14.395  19.644 -19.818  0.00  0.00    +0.000 C 
ATOM     23  O   UNL     1     -13.734  19.775 -21.177  0.00  0.00    +0.000 OA
ATOM     24  C   UNL     1     -13.331  18.474 -19.129  0.00  0.00    +0.000 C 
ATOM     25  O   UNL     1     -14.391  17.572 -18.500  0.00  0.00    +0.000 OA
ATOM     26  C   UNL     1     -12.934  17.429 -20.452  0.00  0.00    +0.000 C 
ATOM     27  O   UNL     1     -12.011  18.457 -21.075  0.00  0.00    +0.000 OA
BRANCH  19  29
ATOM     28  O   UNL     1     -14.543  16.012 -22.313  0.00  0.00    +0.000 OA
ATOM     29  C   UNL     1     -14.263  16.195 -22.055  0.00  0.00    +0.000 C 
ENDBRANCH  19  29
ENDBRANCH  18  21
ENDBRANCH   1  18
TORSDOF 5
ENDMDL
MODEL 9
REMARK VINA RESULT:      -6.7     20.515     23.388
REMARK  Name = 
REMARK  5 active torsions:
REMARK  status: ('A' for Active; 'I' for Inactive)
REMARK    1  A    between atoms: C_2  and  C_3
REMARK    2  A    between atoms: C_5  and  O_6
REMARK    3  A    between atoms: O_6  and  C_7
REMARK    4  A    between atoms: C_13  and  C_14
REMARK    5  A    between atoms: C_15  and  C_16
REMARK                            x       y       z     vdW  Elec       q    Type
REMARK                         _______ _______ _______ _____ _____    ______ ____
ROOT
ATOM      1  C   UNL     1     -36.136  -6.981  -6.197  0.00  0.00    +0.000 A 
ATOM      2  C   UNL     1     -36.472  -7.705  -5.061  0.00  0.00    +0.000 A 
ATOM      3  C   UNL     1     -36.025  -9.000  -4.825  0.00  0.00    +0.000 A 
ATOM      4  O   UNL     1     -35.939  -9.515  -3.531  0.00  0.00    +0.000 OA
ATOM      5  C   UNL     1     -35.470  -9.700  -5.885  0.00  0.00    +0.000 A 
ATOM      6  C   UNL     1     -35.239  -9.080  -7.079  0.00  0.00    +0.000 A 
ATOM      7  C   UNL     1     -35.837  -7.838  -7.266  0.00  0.00    +0.000 A 
ENDROOT
BRANCH   7   8
ATOM      8  C   UNL     1     -36.248  -7.348  -8.592  0.00  0.00    +0.000 C 
ATOM      9  C   UNL     1     -35.456  -7.136  -9.608  0.00  0.00    +0.000 C 
BRANCH   9  10
ATOM     10  C   UNL     1     -35.381  -7.977 -10.814  0.00  0.00    +0.000 A 
ATOM     11  C   UNL     1     -35.443  -7.451 -12.090  0.00  0.00    +0.000 A 
ATOM     12  C   UNL     1     -35.919  -8.174 -13.178  0.00  0.00    +0.000 A 
ATOM     13  O   UNL     1     -35.532  -7.903 -14.480  0.00  0.00    +0.000 OA
ATOM     14  C   UNL     1     -36.564  -9.354 -12.889  0.00  0.00    +0.000 A 
ATOM     15  C   UNL     1     -36.439  -9.979 -11.654  0.00  0.00    +0.000 A 
ATOM     16  O   UNL     1     -37.320 -10.991 -11.253  0.00  0.00    +0.000 OA
ATOM     17  C   UNL     1     -35.562  -9.358 -10.771  0.00  0.00    +0.000 A 
ENDBRANCH   9  10
ENDBRANCH   7   8
BRANCH   1  18
ATOM     18  O   UNL     1     -35.401  -5.864  -6.314  0.00  0.00    +0.000 OA
BRANCH  18  21
ATOM     19  C   UNL     1     -32.782  -4.578  -4.646  0.00  0.00    +0.000 C 
ATOM     20  O   UNL     1     -34.273  -4.866  -4.687  0.00  0.00    +0.000 OA
ATOM     21  C   UNL     1     -33.906  -5.800  -5.855  0.00  0.00    +0.000 C 
ATOM     22  C   UNL     1     -33.498  -4.574  -7.049  0.00  0.00    +0.000 C 
ATOM     23  O   UNL     1     -32.046  -4.441  -6.629  0.00  0.00    +0.000 OA
ATOM     24  C   UNL     1     -34.093  -3.102  -6.374  0.00  0.00    +0.000 C 
ATOM     25  O   UNL     1     -35.374  -3.659  -5.756  0.00  0.00    +0.000 OA
ATOM     26  C   UNL     1     -33.213  -2.926  -4.893  0.00  0.00    +0.000 C 
ATOM     27  O   UNL     1     -31.944  -2.522  -5.617  0.00  0.00    +0.000 OA
BRANCH  19  29
ATOM     28  O   UNL     1     -32.762  -4.666  -2.694  0.00  0.00    +0.000 OA
ATOM     29  C   UNL     1     -32.846  -4.378  -2.991  0.00  0.00    +0.000 C 
ENDBRANCH  19  29
ENDBRANCH  18  21
ENDBRANCH   1  18
TORSDOF 5
ENDMDL
MODEL 10
REMARK VINA RESULT:      -6.6     36.396     39.670
REMARK  Name = 
REMARK  5 active torsions:
REMARK  status: ('A' for Active; 'I' for Inactive)
REMARK    1  A    between atoms: C_2  and  C_3
REMARK    2  A    between atoms: C_5  and  O_6
REMARK    3  A    between atoms: O_6  and  C_7
REMARK    4  A    between atoms: C_13  and  C_14
REMARK    5  A    between atoms: C_15  and  C_16
REMARK                            x       y       z     vdW  Elec       q    Type
REMARK                         _______ _______ _______ _____ _____    ______ ____
ROOT
ATOM      1  C   UNL     1     -10.026  21.417 -21.175  0.00  0.00    +0.000 A 
ATOM      2  C   UNL     1      -9.945  22.570 -20.408  0.00  0.00    +0.000 A 
ATOM      3  C   UNL     1      -9.030  22.733 -19.373  0.00  0.00    +0.000 A 
ATOM      4  O   UNL     1      -8.619  24.000 -18.959  0.00  0.00    +0.000 OA
ATOM      5  C   UNL     1      -8.377  21.606 -18.900  0.00  0.00    +0.000 A 
ATOM      6  C   UNL     1      -8.523  20.403 -19.530  0.00  0.00    +0.000 A 
ATOM      7  C   UNL     1      -9.553  20.306 -20.461  0.00  0.00    +0.000 A 
ENDROOT
BRANCH   7   8
ATOM      8  C   UNL     1     -10.259  19.043 -20.732  0.00  0.00    +0.000 C 
ATOM      9  C   UNL     1     -11.533  18.825 -20.554  0.00  0.00    +0.000 C 
BRANCH   9  10
ATOM     10  C   UNL     1     -12.530  18.698 -21.630  0.00  0.00    +0.000 A 
ATOM     11  C   UNL     1     -13.447  19.693 -21.914  0.00  0.00    +0.000 A 
ATOM     12  C   UNL     1     -14.686  19.431 -22.484  0.00  0.00    +0.000 A 
ATOM     13  O   UNL     1     -15.377  20.372 -23.230  0.00  0.00    +0.000 OA
ATOM     14  C   UNL     1     -15.072  18.112 -22.524  0.00  0.00    +0.000 A 
ATOM     15  C   UNL     1     -14.163  17.073 -22.357  0.00  0.00    +0.000 A 
ATOM     16  O   UNL     1     -14.587  15.766 -22.089  0.00  0.00    +0.000 OA
ATOM     17  C   UNL     1     -12.838  17.473 -22.218  0.00  0.00    +0.000 A 
ENDBRANCH   9  10
ENDBRANCH   7   8
BRANCH   1  18
ATOM     18  O   UNL     1      -9.771  21.237 -22.481  0.00  0.00    +0.000 OA
BRANCH  18  21
ATOM     19  C   UNL     1     -11.432  20.846 -25.376  0.00  0.00    +0.000 C 
ATOM     20  O   UNL     1     -10.805  20.206 -24.149  0.00  0.00    +0.000 OA
ATOM     21  C   UNL     1     -10.795  21.642 -23.593  0.00  0.00    +0.000 C 
ATOM     22  C   UNL     1      -9.541  22.313 -24.629  0.00  0.00    +0.000 C 
ATOM     23  O   UNL     1     -10.478  22.699 -25.758  0.00  0.00    +0.000 OA
ATOM     24  C   UNL     1      -8.810  20.935 -25.367  0.00  0.00    +0.000 C 
ATOM     25  O   UNL     1      -8.863  19.999 -24.161  0.00  0.00    +0.000 OA
ATOM     26  C   UNL     1     -10.099  20.194 -26.255  0.00  0.00    +0.000 C 
ATOM     27  O   UNL     1     -10.062  21.261 -27.331  0.00  0.00    +0.000 OA
BRANCH  19  29
ATOM     28  O   UNL     1     -12.439  19.171 -25.380  0.00  0.00    +0.000 OA
ATOM     29  C   UNL     1     -12.331  19.470 -25.659  0.00  0.00    +0.000 C 
ENDBRANCH  19  29
ENDBRANCH  18  21
ENDBRANCH   1  18
TORSDOF 5
ENDMDL
