MODEL 1
REMARK VINA RESULT:      -8.7      0.000      0.000
REMARK  Name = 
REMARK  8 active torsions:
REMARK  status: ('A' for Active; 'I' for Inactive)
REMARK    1  A    between atoms: C_2  and  C_3
REMARK    2  A    between atoms: C_5  and  O_6
REMARK    3  A    between atoms: O_6  and  C_7
REMARK    4  A    between atoms: C_10  and  C_11
REMARK    5  A    between atoms: C_12  and  C_13
REMARK    6  A    between atoms: C_18  and  O_19
REMARK    7  A    between atoms: O_19  and  C_20
REMARK    8  A    between atoms: C_22  and  C_23
REMARK                            x       y       z     vdW  Elec       q    Type
REMARK                         _______ _______ _______ _____ _____    ______ ____
ROOT
ATOM      1  C   UNL     1     -21.075  -5.636   9.695  0.00  0.00    +0.000 C 
ATOM      2  C   UNL     1     -22.099  -5.886   8.874  0.00  0.00    +0.000 C 
ENDROOT
BRANCH   1   6
ATOM      3  C   UNL     1     -18.450  -2.576   8.903  0.00  0.00    +0.000 A 
ATOM      4  C   UNL     1     -18.878  -2.737  10.216  0.00  0.00    +0.000 A 
ATOM      5  C   UNL     1     -19.891  -3.644  10.392  0.00  0.00    +0.000 A 
ATOM      6  C   UNL     1     -20.040  -4.641   9.418  0.00  0.00    +0.000 A 
ATOM      7  C   UNL     1     -18.820  -4.972   8.820  0.00  0.00    +0.000 A 
ATOM      8  O   UNL     1     -18.701  -6.178   8.166  0.00  0.00    +0.000 OA
ATOM      9  C   UNL     1     -18.203  -3.818   8.320  0.00  0.00    +0.000 A 
BRANCH   3  10
ATOM     10  O   UNL     1     -18.398  -1.376   8.214  0.00  0.00    +0.000 OA
BRANCH  10  13
ATOM     11  C   UNL     1     -17.566  -0.030   5.885  0.00  0.00    +0.000 C 
ATOM     12  O   UNL     1     -17.543  -1.530   6.144  0.00  0.00    +0.000 OA
ATOM     13  C   UNL     1     -18.935  -1.770   6.797  0.00  0.00    +0.000 C 
ATOM     14  C   UNL     1     -19.601  -0.246   6.255  0.00  0.00    +0.000 C 
ATOM     15  O   UNL     1     -20.969  -0.604   6.811  0.00  0.00    +0.000 OA
ATOM     16  C   UNL     1     -19.207   0.850   7.529  0.00  0.00    +0.000 C 
ATOM     17  O   UNL     1     -19.732   0.011   8.676  0.00  0.00    +0.000 OA
ATOM     18  C   UNL     1     -17.539   0.389   7.578  0.00  0.00    +0.000 C 
ATOM     19  O   UNL     1     -17.099   1.786   7.245  0.00  0.00    +0.000 OA
BRANCH  11  21
ATOM     20  O   UNL     1     -15.734  -0.368   5.290  0.00  0.00    +0.000 OA
ATOM     21  C   UNL     1     -15.906   0.027   5.832  0.00  0.00    +0.000 C 
ENDBRANCH  11  21
ENDBRANCH  10  13
ENDBRANCH   3  10
ENDBRANCH   1   6
BRANCH   2  22
ATOM     22  C   UNL     1     -23.461  -5.330   9.092  0.00  0.00    +0.000 A 
ATOM     23  C   UNL     1     -24.360  -5.976   9.950  0.00  0.00    +0.000 A 
ATOM     24  C   UNL     1     -25.537  -6.544   9.474  0.00  0.00    +0.000 A 
ATOM     25  O   UNL     1     -26.042  -7.768   9.922  0.00  0.00    +0.000 OA
ATOM     26  C   UNL     1     -26.107  -6.020   8.347  0.00  0.00    +0.000 A 
ATOM     27  C   UNL     1     -25.406  -5.044   7.660  0.00  0.00    +0.000 A 
ATOM     28  C   UNL     1     -24.077  -4.788   7.975  0.00  0.00    +0.000 A 
BRANCH  27  29
ATOM     29  O   UNL     1     -26.078  -3.987   7.035  0.00  0.00    +0.000 OA
BRANCH  29  30
ATOM     30  C   UNL     1     -27.574  -3.998   7.560  0.00  0.00    +0.000 C 
ATOM     31  O   UNL     1     -27.612  -2.619   8.214  0.00  0.00    +0.000 OA
ATOM     32  C   UNL     1     -27.640  -1.466   7.275  0.00  0.00    +0.000 C 
ATOM     33  C   UNL     1     -26.215  -2.091   6.522  0.00  0.00    +0.000 C 
ATOM     34  O   UNL     1     -25.937  -0.757   5.866  0.00  0.00    +0.000 OA
ATOM     35  C   UNL     1     -27.239  -2.543   5.228  0.00  0.00    +0.000 C 
ATOM     36  O   UNL     1     -26.319  -3.672   4.753  0.00  0.00    +0.000 OA
ATOM     37  C   UNL     1     -28.295  -3.666   5.992  0.00  0.00    +0.000 C 
ATOM     38  O   UNL     1     -29.299  -2.641   6.507  0.00  0.00    +0.000 OA
BRANCH  32  39
ATOM     39  C   UNL     1     -26.709  -0.534   8.317  0.00  0.00    +0.000 C 
ATOM     40  O   UNL     1     -27.317  -0.668   9.550  0.00  0.00    +0.000 OA
ENDBRANCH  32  39
ENDBRANCH  29  30
ENDBRANCH  27  29
ENDBRANCH   2  22
TORSDOF 8
ENDMDL
MODEL 2
REMARK VINA RESULT:      -8.6     15.291     19.310
REMARK  Name = 
REMARK  8 active torsions:
REMARK  status: ('A' for Active; 'I' for Inactive)
REMARK    1  A    between atoms: C_2  and  C_3
REMARK    2  A    between atoms: C_5  and  O_6
REMARK    3  A    between atoms: O_6  and  C_7
REMARK    4  A    between atoms: C_10  and  C_11
REMARK    5  A    between atoms: C_12  and  C_13
REMARK    6  A    between atoms: C_18  and  O_19
REMARK    7  A    between atoms: O_19  and  C_20
REMARK    8  A    between atoms: C_22  and  C_23
REMARK                            x       y       z     vdW  Elec       q    Type
REMARK                         _______ _______ _______ _____ _____    ______ ____
ROOT
ATOM      1  C   UNL     1     -24.705   9.549  -6.333  0.00  0.00    +0.000 C 
ATOM      2  C   UNL     1     -24.199   8.572  -5.578  0.00  0.00    +0.000 C 
ENDROOT
BRANCH   1   6
ATOM      3  C   UNL     1     -28.001   8.806  -8.672  0.00  0.00    +0.000 A 
ATOM      4  C   UNL     1     -27.976   8.255  -7.396  0.00  0.00    +0.000 A 
ATOM      5  C   UNL     1     -26.782   8.373  -6.733  0.00  0.00    +0.000 A 
ATOM      6  C   UNL     1     -25.924   9.410  -7.128  0.00  0.00    +0.000 A 
ATOM      7  C   UNL     1     -26.632  10.511  -7.621  0.00  0.00    +0.000 A 
ATOM      8  O   UNL     1     -26.011  11.739  -7.663  0.00  0.00    +0.000 OA
ATOM      9  C   UNL     1     -27.495  10.105  -8.646  0.00  0.00    +0.000 A 
BRANCH   3  10
ATOM     10  O   UNL     1     -28.347   8.135  -9.832  0.00  0.00    +0.000 OA
BRANCH  10  13
ATOM     11  C   UNL     1     -30.801   7.008 -10.633  0.00  0.00    +0.000 C 
ATOM     12  O   UNL     1     -30.586   8.163  -9.665  0.00  0.00    +0.000 OA
ATOM     13  C   UNL     1     -29.511   9.013 -10.402  0.00  0.00    +0.000 C 
ATOM     14  C   UNL     1     -29.779   8.249 -11.953  0.00  0.00    +0.000 C 
ATOM     15  O   UNL     1     -28.806   9.198 -12.631  0.00  0.00    +0.000 OA
ATOM     16  C   UNL     1     -28.692   6.907 -11.942  0.00  0.00    +0.000 C 
ATOM     17  O   UNL     1     -27.448   7.669 -11.533  0.00  0.00    +0.000 OA
ATOM     18  C   UNL     1     -29.206   6.343 -10.389  0.00  0.00    +0.000 C 
ATOM     19  O   UNL     1     -29.646   5.027 -10.964  0.00  0.00    +0.000 OA
BRANCH  11  21
ATOM     20  O   UNL     1     -32.087   6.132  -9.448  0.00  0.00    +0.000 OA
ATOM     21  C   UNL     1     -31.400   6.047  -9.417  0.00  0.00    +0.000 C 
ENDBRANCH  11  21
ENDBRANCH  10  13
ENDBRANCH   3  10
ENDBRANCH   1   6
BRANCH   2  22
ATOM     22  C   UNL     1     -24.397   8.504  -4.106  0.00  0.00    +0.000 A 
ATOM     23  C   UNL     1     -23.993   9.566  -3.288  0.00  0.00    +0.000 A 
ATOM     24  C   UNL     1     -22.974   9.415  -2.353  0.00  0.00    +0.000 A 
ATOM     25  O   UNL     1     -21.999  10.387  -2.106  0.00  0.00    +0.000 OA
ATOM     26  C   UNL     1     -22.753   8.176  -1.821  0.00  0.00    +0.000 A 
ATOM     27  C   UNL     1     -23.462   7.109  -2.348  0.00  0.00    +0.000 A 
ATOM     28  C   UNL     1     -24.184   7.265  -3.525  0.00  0.00    +0.000 A 
BRANCH  27  29
ATOM     29  O   UNL     1     -23.892   6.062  -1.525  0.00  0.00    +0.000 OA
BRANCH  29  30
ATOM     30  C   UNL     1     -24.664   6.705  -0.300  0.00  0.00    +0.000 C 
ATOM     31  O   UNL     1     -26.095   6.359  -0.704  0.00  0.00    +0.000 OA
ATOM     32  C   UNL     1     -26.470   4.926  -0.566  0.00  0.00    +0.000 C 
ATOM     33  C   UNL     1     -25.108   4.513  -1.546  0.00  0.00    +0.000 C 
ATOM     34  O   UNL     1     -25.677   3.138  -1.815  0.00  0.00    +0.000 OA
ATOM     35  C   UNL     1     -24.383   3.959  -0.099  0.00  0.00    +0.000 C 
ATOM     36  O   UNL     1     -22.954   4.149  -0.616  0.00  0.00    +0.000 OA
ATOM     37  C   UNL     1     -24.290   5.407   0.824  0.00  0.00    +0.000 C 
ATOM     38  O   UNL     1     -25.689   5.323   1.423  0.00  0.00    +0.000 OA
BRANCH  32  39
ATOM     39  C   UNL     1     -27.454   5.004  -1.924  0.00  0.00    +0.000 C 
ATOM     40  O   UNL     1     -28.681   5.423  -1.449  0.00  0.00    +0.000 OA
ENDBRANCH  32  39
ENDBRANCH  29  30
ENDBRANCH  27  29
ENDBRANCH   2  22
TORSDOF 8
ENDMDL
MODEL 3
REMARK VINA RESULT:      -8.5      1.084      2.230
REMARK  Name = 
REMARK  8 active torsions:
REMARK  status: ('A' for Active; 'I' for Inactive)
REMARK    1  A    between atoms: C_2  and  C_3
REMARK    2  A    between atoms: C_5  and  O_6
REMARK    3  A    between atoms: O_6  and  C_7
REMARK    4  A    between atoms: C_10  and  C_11
REMARK    5  A    between atoms: C_12  and  C_13
REMARK    6  A    between atoms: C_18  and  O_19
REMARK    7  A    between atoms: O_19  and  C_20
REMARK    8  A    between atoms: C_22  and  C_23
REMARK                            x       y       z     vdW  Elec       q    Type
REMARK                         _______ _______ _______ _____ _____    ______ ____
ROOT
ATOM      1  C   UNL     1     -21.228  -5.481   9.666  0.00  0.00    +0.000 C 
ATOM      2  C   UNL     1     -22.300  -5.621   8.883  0.00  0.00    +0.000 C 
ENDROOT
BRANCH   1   6
ATOM      3  C   UNL     1     -18.422  -2.587   8.864  0.00  0.00    +0.000 A 
ATOM      4  C   UNL     1     -18.838  -2.737  10.183  0.00  0.00    +0.000 A 
ATOM      5  C   UNL     1     -19.904  -3.579  10.366  0.00  0.00    +0.000 A 
ATOM      6  C   UNL     1     -20.135  -4.552   9.382  0.00  0.00    +0.000 A 
ATOM      7  C   UNL     1     -18.949  -4.953   8.759  0.00  0.00    +0.000 A 
ATOM      8  O   UNL     1     -18.921  -6.155   8.088  0.00  0.00    +0.000 OA
ATOM      9  C   UNL     1     -18.268  -3.834   8.262  0.00  0.00    +0.000 A 
BRANCH   3  10
ATOM     10  O   UNL     1     -18.305  -1.384   8.190  0.00  0.00    +0.000 OA
BRANCH  10  13
ATOM     11  C   UNL     1     -17.450  -0.011   5.885  0.00  0.00    +0.000 C 
ATOM     12  O   UNL     1     -17.468  -1.516   6.110  0.00  0.00    +0.000 OA
ATOM     13  C   UNL     1     -18.861  -1.731   6.769  0.00  0.00    +0.000 C 
ATOM     14  C   UNL     1     -19.488  -0.178   6.264  0.00  0.00    +0.000 C 
ATOM     15  O   UNL     1     -20.862  -0.509   6.822  0.00  0.00    +0.000 OA
ATOM     16  C   UNL     1     -19.055   0.879   7.560  0.00  0.00    +0.000 C 
ATOM     17  O   UNL     1     -19.596   0.030   8.692  0.00  0.00    +0.000 OA
ATOM     18  C   UNL     1     -17.401   0.370   7.587  0.00  0.00    +0.000 C 
ATOM     19  O   UNL     1     -16.923   1.761   7.281  0.00  0.00    +0.000 OA
BRANCH  11  21
ATOM     20  O   UNL     1     -15.633  -0.361   5.252  0.00  0.00    +0.000 OA
ATOM     21  C   UNL     1     -15.790   0.001   5.821  0.00  0.00    +0.000 C 
ENDBRANCH  11  21
ENDBRANCH  10  13
ENDBRANCH   3  10
ENDBRANCH   1   6
BRANCH   2  22
ATOM     22  C   UNL     1     -23.608  -4.979   9.183  0.00  0.00    +0.000 A 
ATOM     23  C   UNL     1     -24.183  -5.105  10.453  0.00  0.00    +0.000 A 
ATOM     24  C   UNL     1     -25.380  -5.788  10.643  0.00  0.00    +0.000 A 
ATOM     25  O   UNL     1     -25.625  -6.633  11.731  0.00  0.00    +0.000 OA
ATOM     26  C   UNL     1     -26.273  -5.843   9.610  0.00  0.00    +0.000 A 
ATOM     27  C   UNL     1     -25.877  -5.338   8.384  0.00  0.00    +0.000 A 
ATOM     28  C   UNL     1     -24.544  -5.012   8.162  0.00  0.00    +0.000 A 
BRANCH  27  29
ATOM     29  O   UNL     1     -26.791  -4.682   7.552  0.00  0.00    +0.000 OA
BRANCH  29  30
ATOM     30  C   UNL     1     -26.107  -3.342   7.054  0.00  0.00    +0.000 C 
ATOM     31  O   UNL     1     -26.215  -3.558   5.547  0.00  0.00    +0.000 OA
ATOM     32  C   UNL     1     -27.582  -3.418   4.977  0.00  0.00    +0.000 C 
ATOM     33  C   UNL     1     -28.140  -4.589   6.120  0.00  0.00    +0.000 C 
ATOM     34  O   UNL     1     -29.399  -4.822   5.315  0.00  0.00    +0.000 OA
ATOM     35  C   UNL     1     -28.872  -3.273   6.932  0.00  0.00    +0.000 C 
ATOM     36  O   UNL     1     -28.869  -3.973   8.295  0.00  0.00    +0.000 OA
ATOM     37  C   UNL     1     -27.505  -2.324   7.367  0.00  0.00    +0.000 C 
ATOM     38  O   UNL     1     -27.412  -1.542   6.062  0.00  0.00    +0.000 OA
BRANCH  32  39
ATOM     39  C   UNL     1     -27.286  -4.626   3.849  0.00  0.00    +0.000 C 
ATOM     40  O   UNL     1     -26.103  -4.259   3.239  0.00  0.00    +0.000 OA
ENDBRANCH  32  39
ENDBRANCH  29  30
ENDBRANCH  27  29
ENDBRANCH   2  22
TORSDOF 8
ENDMDL
MODEL 4
REMARK VINA RESULT:      -8.3     15.157     19.105
REMARK  Name = 
REMARK  8 active torsions:
REMARK  status: ('A' for Active; 'I' for Inactive)
REMARK    1  A    between atoms: C_2  and  C_3
REMARK    2  A    between atoms: C_5  and  O_6
REMARK    3  A    between atoms: O_6  and  C_7
REMARK    4  A    between atoms: C_10  and  C_11
REMARK    5  A    between atoms: C_12  and  C_13
REMARK    6  A    between atoms: C_18  and  O_19
REMARK    7  A    between atoms: O_19  and  C_20
REMARK    8  A    between atoms: C_22  and  C_23
REMARK                            x       y       z     vdW  Elec       q    Type
REMARK                         _______ _______ _______ _____ _____    ______ ____
ROOT
ATOM      1  C   UNL     1     -24.936   9.648  -6.218  0.00  0.00    +0.000 C 
ATOM      2  C   UNL     1     -24.435   8.661  -5.473  0.00  0.00    +0.000 C 
ENDROOT
BRANCH   1   6
ATOM      3  C   UNL     1     -28.120   8.866  -8.696  0.00  0.00    +0.000 A 
ATOM      4  C   UNL     1     -28.196   8.414  -7.384  0.00  0.00    +0.000 A 
ATOM      5  C   UNL     1     -27.039   8.533  -6.658  0.00  0.00    +0.000 A 
ATOM      6  C   UNL     1     -26.112   9.499  -7.075  0.00  0.00    +0.000 A 
ATOM      7  C   UNL     1     -26.737  10.588  -7.691  0.00  0.00    +0.000 A 
ATOM      8  O   UNL     1     -26.057  11.783  -7.785  0.00  0.00    +0.000 OA
ATOM      9  C   UNL     1     -27.556  10.141  -8.735  0.00  0.00    +0.000 A 
BRANCH   3  10
ATOM     10  O   UNL     1     -28.427   8.123  -9.823  0.00  0.00    +0.000 OA
BRANCH  10  13
ATOM     11  C   UNL     1     -30.749   6.793 -10.701  0.00  0.00    +0.000 C 
ATOM     12  O   UNL     1     -30.664   7.955  -9.723  0.00  0.00    +0.000 OA
ATOM     13  C   UNL     1     -29.646   8.900 -10.424  0.00  0.00    +0.000 C 
ATOM     14  C   UNL     1     -29.800   8.125 -11.986  0.00  0.00    +0.000 C 
ATOM     15  O   UNL     1     -28.893   9.160 -12.630  0.00  0.00    +0.000 OA
ATOM     16  C   UNL     1     -28.601   6.883 -11.947  0.00  0.00    +0.000 C 
ATOM     17  O   UNL     1     -27.441   7.748 -11.497  0.00  0.00    +0.000 OA
ATOM     18  C   UNL     1     -29.110   6.267 -10.411  0.00  0.00    +0.000 C 
ATOM     19  O   UNL     1     -29.417   4.922 -11.004  0.00  0.00    +0.000 OA
BRANCH  11  21
ATOM     20  O   UNL     1     -31.951   5.978  -9.390  0.00  0.00    +0.000 OA
ATOM     21  C   UNL     1     -31.299   5.776  -9.508  0.00  0.00    +0.000 C 
ENDBRANCH  11  21
ENDBRANCH  10  13
ENDBRANCH   3  10
ENDBRANCH   1   6
BRANCH   2  22
ATOM     22  C   UNL     1     -24.700   8.536  -4.015  0.00  0.00    +0.000 A 
ATOM     23  C   UNL     1     -23.947   9.273  -3.093  0.00  0.00    +0.000 A 
ATOM     24  C   UNL     1     -23.103   8.648  -2.180  0.00  0.00    +0.000 A 
ATOM     25  O   UNL     1     -21.838   9.135  -1.836  0.00  0.00    +0.000 OA
ATOM     26  C   UNL     1     -23.402   7.376  -1.779  0.00  0.00    +0.000 A 
ATOM     27  C   UNL     1     -24.448   6.726  -2.411  0.00  0.00    +0.000 A 
ATOM     28  C   UNL     1     -25.007   7.262  -3.564  0.00  0.00    +0.000 A 
BRANCH  27  29
ATOM     29  O   UNL     1     -25.282   5.856  -1.699  0.00  0.00    +0.000 OA
BRANCH  29  30
ATOM     30  C   UNL     1     -24.365   4.734  -1.058  0.00  0.00    +0.000 C 
ATOM     31  O   UNL     1     -24.658   4.993   0.417  0.00  0.00    +0.000 OA
ATOM     32  C   UNL     1     -26.005   4.572   0.886  0.00  0.00    +0.000 C 
ATOM     33  C   UNL     1     -26.702   5.527  -0.375  0.00  0.00    +0.000 C 
ATOM     34  O   UNL     1     -28.050   5.507   0.310  0.00  0.00    +0.000 OA
ATOM     35  C   UNL     1     -27.044   4.042  -1.151  0.00  0.00    +0.000 C 
ATOM     36  O   UNL     1     -27.071   4.657  -2.554  0.00  0.00    +0.000 OA
ATOM     37  C   UNL     1     -25.466   3.409  -1.410  0.00  0.00    +0.000 C 
ATOM     38  O   UNL     1     -25.322   2.734  -0.052  0.00  0.00    +0.000 OA
BRANCH  32  39
ATOM     39  C   UNL     1     -26.092   5.869   1.949  0.00  0.00    +0.000 C 
ATOM     40  O   UNL     1     -24.815   5.994   2.459  0.00  0.00    +0.000 OA
ENDBRANCH  32  39
ENDBRANCH  29  30
ENDBRANCH  27  29
ENDBRANCH   2  22
TORSDOF 8
ENDMDL
MODEL 5
REMARK VINA RESULT:      -8.2      1.301      2.247
REMARK  Name = 
REMARK  8 active torsions:
REMARK  status: ('A' for Active; 'I' for Inactive)
REMARK    1  A    between atoms: C_2  and  C_3
REMARK    2  A    between atoms: C_5  and  O_6
REMARK    3  A    between atoms: O_6  and  C_7
REMARK    4  A    between atoms: C_10  and  C_11
REMARK    5  A    between atoms: C_12  and  C_13
REMARK    6  A    between atoms: C_18  and  O_19
REMARK    7  A    between atoms: O_19  and  C_20
REMARK    8  A    between atoms: C_22  and  C_23
REMARK                            x       y       z     vdW  Elec       q    Type
REMARK                         _______ _______ _______ _____ _____    ______ ____
ROOT
ATOM      1  C   UNL     1     -21.187  -6.424   9.491  0.00  0.00    +0.000 C 
ATOM      2  C   UNL     1     -22.131  -6.721   8.595  0.00  0.00    +0.000 C 
ENDROOT
BRANCH   1   6
ATOM      3  C   UNL     1     -18.822  -3.097   9.021  0.00  0.00    +0.000 A 
ATOM      4  C   UNL     1     -19.312  -3.366  10.293  0.00  0.00    +0.000 A 
ATOM      5  C   UNL     1     -20.243  -4.371  10.359  0.00  0.00    +0.000 A 
ATOM      6  C   UNL     1     -20.237  -5.325   9.331  0.00  0.00    +0.000 A 
ATOM      7  C   UNL     1     -18.956  -5.509   8.800  0.00  0.00    +0.000 A 
ATOM      8  O   UNL     1     -18.683  -6.662   8.098  0.00  0.00    +0.000 OA
ATOM      9  C   UNL     1     -18.423  -4.278   8.398  0.00  0.00    +0.000 A 
BRANCH   3  10
ATOM     10  O   UNL     1     -18.843  -1.862   8.395  0.00  0.00    +0.000 OA
BRANCH  10  13
ATOM     11  C   UNL     1     -17.731  -0.066   6.533  0.00  0.00    +0.000 C 
ATOM     12  O   UNL     1     -17.304  -1.502   6.800  0.00  0.00    +0.000 OA
ATOM     13  C   UNL     1     -18.672  -2.240   6.886  0.00  0.00    +0.000 C 
ATOM     14  C   UNL     1     -19.567  -0.950   6.113  0.00  0.00    +0.000 C 
ATOM     15  O   UNL     1     -20.840  -1.779   6.119  0.00  0.00    +0.000 OA
ATOM     16  C   UNL     1     -20.045   0.062   7.429  0.00  0.00    +0.000 C 
ATOM     17  O   UNL     1     -20.634  -1.025   8.305  0.00  0.00    +0.000 OA
ATOM     18  C   UNL     1     -18.455   0.144   8.107  0.00  0.00    +0.000 C 
ATOM     19  O   UNL     1     -18.416   1.637   7.947  0.00  0.00    +0.000 OA
BRANCH  11  21
ATOM     20  O   UNL     1     -15.819   0.333   6.627  0.00  0.00    +0.000 OA
ATOM     21  C   UNL     1     -16.284   0.514   7.107  0.00  0.00    +0.000 C 
ENDBRANCH  11  21
ENDBRANCH  10  13
ENDBRANCH   3  10
ENDBRANCH   1   6
BRANCH   2  22
ATOM     22  C   UNL     1     -23.551  -6.306   8.751  0.00  0.00    +0.000 A 
ATOM     23  C   UNL     1     -24.564  -7.268   8.833  0.00  0.00    +0.000 A 
ATOM     24  C   UNL     1     -25.540  -7.380   7.848  0.00  0.00    +0.000 A 
ATOM     25  O   UNL     1     -26.025  -8.603   7.373  0.00  0.00    +0.000 OA
ATOM     26  C   UNL     1     -25.873  -6.267   7.128  0.00  0.00    +0.000 A 
ATOM     27  C   UNL     1     -25.120  -5.121   7.320  0.00  0.00    +0.000 A 
ATOM     28  C   UNL     1     -23.932  -5.181   8.038  0.00  0.00    +0.000 A 
BRANCH  27  29
ATOM     29  O   UNL     1     -25.719  -3.857   7.273  0.00  0.00    +0.000 OA
BRANCH  29  30
ATOM     30  C   UNL     1     -24.574  -2.780   7.470  0.00  0.00    +0.000 C 
ATOM     31  O   UNL     1     -24.472  -2.266   6.036  0.00  0.00    +0.000 OA
ATOM     32  C   UNL     1     -25.601  -1.412   5.581  0.00  0.00    +0.000 C 
ATOM     33  C   UNL     1     -26.692  -2.675   6.035  0.00  0.00    +0.000 C 
ATOM     34  O   UNL     1     -27.795  -2.067   5.198  0.00  0.00    +0.000 OA
ATOM     35  C   UNL     1     -27.111  -1.677   7.359  0.00  0.00    +0.000 C 
ATOM     36  O   UNL     1     -27.570  -2.847   8.234  0.00  0.00    +0.000 OA
ATOM     37  C   UNL     1     -25.617  -1.572   8.206  0.00  0.00    +0.000 C 
ATOM     38  O   UNL     1     -25.053  -0.393   7.421  0.00  0.00    +0.000 OA
BRANCH  32  39
ATOM     39  C   UNL     1     -25.500  -2.028   4.022  0.00  0.00    +0.000 C 
ATOM     40  O   UNL     1     -25.118  -0.954   3.242  0.00  0.00    +0.000 OA
ENDBRANCH  32  39
ENDBRANCH  29  30
ENDBRANCH  27  29
ENDBRANCH   2  22
TORSDOF 8
ENDMDL
MODEL 6
REMARK VINA RESULT:      -8.2     15.708     19.591
REMARK  Name = 
REMARK  8 active torsions:
REMARK  status: ('A' for Active; 'I' for Inactive)
REMARK    1  A    between atoms: C_2  and  C_3
REMARK    2  A    between atoms: C_5  and  O_6
REMARK    3  A    between atoms: O_6  and  C_7
REMARK    4  A    between atoms: C_10  and  C_11
REMARK    5  A    between atoms: C_12  and  C_13
REMARK    6  A    between atoms: C_18  and  O_19
REMARK    7  A    between atoms: O_19  and  C_20
REMARK    8  A    between atoms: C_22  and  C_23
REMARK                            x       y       z     vdW  Elec       q    Type
REMARK                         _______ _______ _______ _____ _____    ______ ____
ROOT
ATOM      1  C   UNL     1     -25.140  10.076  -6.343  0.00  0.00    +0.000 C 
ATOM      2  C   UNL     1     -24.168   9.600  -5.562  0.00  0.00    +0.000 C 
ENDROOT
BRANCH   1   6
ATOM      3  C   UNL     1     -27.748   7.885  -8.643  0.00  0.00    +0.000 A 
ATOM      4  C   UNL     1     -26.409   7.512  -8.650  0.00  0.00    +0.000 A 
ATOM      5  C   UNL     1     -25.557   8.383  -8.022  0.00  0.00    +0.000 A 
ATOM      6  C   UNL     1     -26.103   9.229  -7.046  0.00  0.00    +0.000 A 
ATOM      7  C   UNL     1     -27.199   8.644  -6.405  0.00  0.00    +0.000 A 
ATOM      8  O   UNL     1     -27.591   9.128  -5.176  0.00  0.00    +0.000 OA
ATOM      9  C   UNL     1     -28.145   8.233  -7.353  0.00  0.00    +0.000 A 
BRANCH   3  10
ATOM     10  O   UNL     1     -28.550   8.028  -9.762  0.00  0.00    +0.000 OA
BRANCH  10  13
ATOM     11  C   UNL     1     -28.868   9.153 -12.324  0.00  0.00    +0.000 C 
ATOM     12  O   UNL     1     -27.617   9.169 -11.457  0.00  0.00    +0.000 OA
ATOM     13  C   UNL     1     -27.564   7.704 -10.934  0.00  0.00    +0.000 C 
ATOM     14  C   UNL     1     -28.670   7.091 -12.143  0.00  0.00    +0.000 C 
ATOM     15  O   UNL     1     -28.472   5.666 -11.656  0.00  0.00    +0.000 OA
ATOM     16  C   UNL     1     -30.223   7.281 -11.412  0.00  0.00    +0.000 C 
ATOM     17  O   UNL     1     -29.898   6.616 -10.090  0.00  0.00    +0.000 OA
ATOM     18  C   UNL     1     -29.953   8.934 -10.975  0.00  0.00    +0.000 C 
ATOM     19  O   UNL     1     -31.114   9.391 -11.810  0.00  0.00    +0.000 OA
BRANCH  11  21
ATOM     20  O   UNL     1     -28.592  11.058 -12.675  0.00  0.00    +0.000 OA
ATOM     21  C   UNL     1     -29.025  10.803 -12.197  0.00  0.00    +0.000 C 
ENDBRANCH  11  21
ENDBRANCH  10  13
ENDBRANCH   3  10
ENDBRANCH   1   6
BRANCH   2  22
ATOM     22  C   UNL     1     -24.269   9.567  -4.079  0.00  0.00    +0.000 A 
ATOM     23  C   UNL     1     -23.798  10.641  -3.314  0.00  0.00    +0.000 A 
ATOM     24  C   UNL     1     -22.721  10.496  -2.445  0.00  0.00    +0.000 A 
ATOM     25  O   UNL     1     -21.720  11.460  -2.285  0.00  0.00    +0.000 OA
ATOM     26  C   UNL     1     -22.480   9.266  -1.901  0.00  0.00    +0.000 A 
ATOM     27  C   UNL     1     -23.235   8.198  -2.356  0.00  0.00    +0.000 A 
ATOM     28  C   UNL     1     -24.032   8.337  -3.485  0.00  0.00    +0.000 A 
BRANCH  27  29
ATOM     29  O   UNL     1     -23.622   7.175  -1.483  0.00  0.00    +0.000 OA
BRANCH  29  30
ATOM     30  C   UNL     1     -25.077   7.520  -0.959  0.00  0.00    +0.000 C 
ATOM     31  O   UNL     1     -25.788   6.226  -1.344  0.00  0.00    +0.000 OA
ATOM     32  C   UNL     1     -25.453   5.039  -0.512  0.00  0.00    +0.000 C 
ATOM     33  C   UNL     1     -23.782   5.313  -0.860  0.00  0.00    +0.000 C 
ATOM     34  O   UNL     1     -23.427   3.908  -0.427  0.00  0.00    +0.000 OA
ATOM     35  C   UNL     1     -23.658   5.870   0.752  0.00  0.00    +0.000 C 
ATOM     36  O   UNL     1     -22.441   6.756   0.467  0.00  0.00    +0.000 OA
ATOM     37  C   UNL     1     -24.709   7.232   0.736  0.00  0.00    +0.000 C 
ATOM     38  O   UNL     1     -25.992   6.467   1.036  0.00  0.00    +0.000 OA
BRANCH  32  39
ATOM     39  C   UNL     1     -25.585   4.015  -1.836  0.00  0.00    +0.000 C 
ATOM     40  O   UNL     1     -26.874   4.197  -2.296  0.00  0.00    +0.000 OA
ENDBRANCH  32  39
ENDBRANCH  29  30
ENDBRANCH  27  29
ENDBRANCH   2  22
TORSDOF 8
ENDMDL
MODEL 7
REMARK VINA RESULT:      -7.8     16.812     21.090
REMARK  Name = 
REMARK  8 active torsions:
REMARK  status: ('A' for Active; 'I' for Inactive)
REMARK    1  A    between atoms: C_2  and  C_3
REMARK    2  A    between atoms: C_5  and  O_6
REMARK    3  A    between atoms: O_6  and  C_7
REMARK    4  A    between atoms: C_10  and  C_11
REMARK    5  A    between atoms: C_12  and  C_13
REMARK    6  A    between atoms: C_18  and  O_19
REMARK    7  A    between atoms: O_19  and  C_20
REMARK    8  A    between atoms: C_22  and  C_23
REMARK                            x       y       z     vdW  Elec       q    Type
REMARK                         _______ _______ _______ _____ _____    ______ ____
ROOT
ATOM      1  C   UNL     1     -25.542   8.249  -8.938  0.00  0.00    +0.000 C 
ATOM      2  C   UNL     1     -25.508   7.633  -7.754  0.00  0.00    +0.000 C 
ENDROOT
BRANCH   1   6
ATOM      3  C   UNL     1     -29.043   8.427 -11.083  0.00  0.00    +0.000 A 
ATOM      4  C   UNL     1     -28.319   9.604 -10.928  0.00  0.00    +0.000 A 
ATOM      5  C   UNL     1     -27.267   9.531 -10.051  0.00  0.00    +0.000 A 
ATOM      6  C   UNL     1     -26.716   8.264  -9.809  0.00  0.00    +0.000 A 
ATOM      7  C   UNL     1     -26.841   7.422 -10.919  0.00  0.00    +0.000 A 
ATOM      8  O   UNL     1     -26.018   6.321 -11.018  0.00  0.00    +0.000 OA
ATOM      9  C   UNL     1     -28.180   7.359 -11.324  0.00  0.00    +0.000 A 
BRANCH   3  10
ATOM     10  O   UNL     1     -30.407   8.291 -10.896  0.00  0.00    +0.000 OA
BRANCH  10  13
ATOM     11  C   UNL     1     -32.539   7.881  -9.102  0.00  0.00    +0.000 C 
ATOM     12  O   UNL     1     -31.074   8.108  -8.759  0.00  0.00    +0.000 OA
ATOM     13  C   UNL     1     -30.692   9.277  -9.713  0.00  0.00    +0.000 C 
ATOM     14  C   UNL     1     -32.350   9.727 -10.042  0.00  0.00    +0.000 C 
ATOM     15  O   UNL     1     -31.901  10.926 -10.860  0.00  0.00    +0.000 OA
ATOM     16  C   UNL     1     -32.771   8.764 -11.412  0.00  0.00    +0.000 C 
ATOM     17  O   UNL     1     -31.571   9.111 -12.270  0.00  0.00    +0.000 OA
ATOM     18  C   UNL     1     -32.202   7.289 -10.708  0.00  0.00    +0.000 C 
ATOM     19  O   UNL     1     -33.568   6.672 -10.788  0.00  0.00    +0.000 OA
BRANCH  11  21
ATOM     20  O   UNL     1     -32.394   6.409  -7.822  0.00  0.00    +0.000 OA
ATOM     21  C   UNL     1     -32.481   6.332  -8.505  0.00  0.00    +0.000 C 
ENDBRANCH  11  21
ENDBRANCH  10  13
ENDBRANCH   3  10
ENDBRANCH   1   6
BRANCH   2  22
ATOM     22  C   UNL     1     -25.673   8.356  -6.464  0.00  0.00    +0.000 A 
ATOM     23  C   UNL     1     -26.125   9.681  -6.449  0.00  0.00    +0.000 A 
ATOM     24  C   UNL     1     -25.312  10.720  -6.008  0.00  0.00    +0.000 A 
ATOM     25  O   UNL     1     -25.258  11.975  -6.623  0.00  0.00    +0.000 OA
ATOM     26  C   UNL     1     -24.338  10.444  -5.090  0.00  0.00    +0.000 A 
ATOM     27  C   UNL     1     -24.119   9.118  -4.756  0.00  0.00    +0.000 A 
ATOM     28  C   UNL     1     -24.707   8.105  -5.504  0.00  0.00    +0.000 A 
BRANCH  27  29
ATOM     29  O   UNL     1     -23.768   8.760  -3.450  0.00  0.00    +0.000 OA
BRANCH  29  30
ATOM     30  C   UNL     1     -24.977   9.156  -2.505  0.00  0.00    +0.000 C 
ATOM     31  O   UNL     1     -25.437   7.758  -2.099  0.00  0.00    +0.000 OA
ATOM     32  C   UNL     1     -24.546   7.042  -1.147  0.00  0.00    +0.000 C 
ATOM     33  C   UNL     1     -23.232   7.301  -2.241  0.00  0.00    +0.000 C 
ATOM     34  O   UNL     1     -22.412   6.227  -1.561  0.00  0.00    +0.000 OA
ATOM     35  C   UNL     1     -22.682   8.469  -1.119  0.00  0.00    +0.000 C 
ATOM     36  O   UNL     1     -21.905   9.269  -2.169  0.00  0.00    +0.000 OA
ATOM     37  C   UNL     1     -23.970   9.609  -1.138  0.00  0.00    +0.000 C 
ATOM     38  O   UNL     1     -24.831   8.918  -0.087  0.00  0.00    +0.000 OA
BRANCH  32  39
ATOM     39  C   UNL     1     -24.886   5.564  -1.868  0.00  0.00    +0.000 C 
ATOM     40  O   UNL     1     -25.409   4.789  -0.852  0.00  0.00    +0.000 OA
ENDBRANCH  32  39
ENDBRANCH  29  30
ENDBRANCH  27  29
ENDBRANCH   2  22
TORSDOF 8
ENDMDL
MODEL 8
REMARK VINA RESULT:      -7.8     15.444     18.749
REMARK  Name = 
REMARK  8 active torsions:
REMARK  status: ('A' for Active; 'I' for Inactive)
REMARK    1  A    between atoms: C_2  and  C_3
REMARK    2  A    between atoms: C_5  and  O_6
REMARK    3  A    between atoms: O_6  and  C_7
REMARK    4  A    between atoms: C_10  and  C_11
REMARK    5  A    between atoms: C_12  and  C_13
REMARK    6  A    between atoms: C_18  and  O_19
REMARK    7  A    between atoms: O_19  and  C_20
REMARK    8  A    between atoms: C_22  and  C_23
REMARK                            x       y       z     vdW  Elec       q    Type
REMARK                         _______ _______ _______ _____ _____    ______ ____
ROOT
ATOM      1  C   UNL     1     -25.124   8.033  -6.107  0.00  0.00    +0.000 C 
ATOM      2  C   UNL     1     -24.961   9.213  -6.711  0.00  0.00    +0.000 C 
ENDROOT
BRANCH   1   6
ATOM      3  C   UNL     1     -25.761   7.441  -2.091  0.00  0.00    +0.000 A 
ATOM      4  C   UNL     1     -24.943   8.501  -2.466  0.00  0.00    +0.000 A 
ATOM      5  C   UNL     1     -24.612   8.540  -3.796  0.00  0.00    +0.000 A 
ATOM      6  C   UNL     1     -25.471   7.889  -4.694  0.00  0.00    +0.000 A 
ATOM      7  C   UNL     1     -26.793   7.888  -4.240  0.00  0.00    +0.000 A 
ATOM      8  O   UNL     1     -27.810   7.676  -5.145  0.00  0.00    +0.000 OA
ATOM      9  C   UNL     1     -26.856   7.350  -2.948  0.00  0.00    +0.000 A 
BRANCH   3  10
ATOM     10  O   UNL     1     -25.478   6.519  -1.098  0.00  0.00    +0.000 OA
BRANCH  10  13
ATOM     11  C   UNL     1     -25.313   3.721  -0.827  0.00  0.00    +0.000 C 
ATOM     12  O   UNL     1     -25.248   4.530  -2.115  0.00  0.00    +0.000 OA
ATOM     13  C   UNL     1     -24.298   5.698  -1.719  0.00  0.00    +0.000 C 
ATOM     14  C   UNL     1     -23.672   4.886  -0.302  0.00  0.00    +0.000 C 
ATOM     15  O   UNL     1     -22.682   6.011  -0.049  0.00  0.00    +0.000 OA
ATOM     16  C   UNL     1     -24.757   5.360   0.955  0.00  0.00    +0.000 C 
ATOM     17  O   UNL     1     -24.713   6.852   0.696  0.00  0.00    +0.000 OA
ATOM     18  C   UNL     1     -26.177   4.955   0.052  0.00  0.00    +0.000 C 
ATOM     19  O   UNL     1     -26.600   3.950   1.085  0.00  0.00    +0.000 OA
BRANCH  11  21
ATOM     20  O   UNL     1     -26.576   2.577  -1.786  0.00  0.00    +0.000 OA
ATOM     21  C   UNL     1     -26.750   3.026  -1.289  0.00  0.00    +0.000 C 
ENDBRANCH  11  21
ENDBRANCH  10  13
ENDBRANCH   3  10
ENDBRANCH   1   6
BRANCH   2  22
ATOM     22  C   UNL     1     -26.014   9.838  -7.556  0.00  0.00    +0.000 A 
ATOM     23  C   UNL     1     -26.805  10.875  -7.047  0.00  0.00    +0.000 A 
ATOM     24  C   UNL     1     -28.175  10.717  -6.859  0.00  0.00    +0.000 A 
ATOM     25  O   UNL     1     -28.867  11.216  -5.752  0.00  0.00    +0.000 OA
ATOM     26  C   UNL     1     -28.846   9.830  -7.654  0.00  0.00    +0.000 A 
ATOM     27  C   UNL     1     -28.102   9.032  -8.506  0.00  0.00    +0.000 A 
ATOM     28  C   UNL     1     -26.720   8.974  -8.378  0.00  0.00    +0.000 A 
BRANCH  27  29
ATOM     29  O   UNL     1     -28.593   8.686  -9.770  0.00  0.00    +0.000 OA
BRANCH  29  30
ATOM     30  C   UNL     1     -28.125   7.202 -10.073  0.00  0.00    +0.000 C 
ATOM     31  O   UNL     1     -29.482   6.505 -10.030  0.00  0.00    +0.000 OA
ATOM     32  C   UNL     1     -30.376   6.772 -11.188  0.00  0.00    +0.000 C 
ATOM     33  C   UNL     1     -30.198   8.465 -10.889  0.00  0.00    +0.000 C 
ATOM     34  O   UNL     1     -31.416   8.775 -11.731  0.00  0.00    +0.000 OA
ATOM     35  C   UNL     1     -29.200   8.486 -12.278  0.00  0.00    +0.000 C 
ATOM     36  O   UNL     1     -28.423   9.728 -11.832  0.00  0.00    +0.000 OA
ATOM     37  C   UNL     1     -27.910   7.453 -11.800  0.00  0.00    +0.000 C 
ATOM     38  O   UNL     1     -28.569   6.144 -12.221  0.00  0.00    +0.000 OA
BRANCH  32  39
ATOM     39  C   UNL     1     -31.739   6.718 -10.209  0.00  0.00    +0.000 C 
ATOM     40  O   UNL     1     -31.610   5.547  -9.488  0.00  0.00    +0.000 OA
ENDBRANCH  32  39
ENDBRANCH  29  30
ENDBRANCH  27  29
ENDBRANCH   2  22
TORSDOF 8
ENDMDL
MODEL 9
REMARK VINA RESULT:      -7.7     15.908     20.106
REMARK  Name = 
REMARK  8 active torsions:
REMARK  status: ('A' for Active; 'I' for Inactive)
REMARK    1  A    between atoms: C_2  and  C_3
REMARK    2  A    between atoms: C_5  and  O_6
REMARK    3  A    between atoms: O_6  and  C_7
REMARK    4  A    between atoms: C_10  and  C_11
REMARK    5  A    between atoms: C_12  and  C_13
REMARK    6  A    between atoms: C_18  and  O_19
REMARK    7  A    between atoms: O_19  and  C_20
REMARK    8  A    between atoms: C_22  and  C_23
REMARK                            x       y       z     vdW  Elec       q    Type
REMARK                         _______ _______ _______ _____ _____    ______ ____
ROOT
ATOM      1  C   UNL     1     -27.336  10.856  -5.105  0.00  0.00    +0.000 C 
ATOM      2  C   UNL     1     -26.074  11.271  -5.245  0.00  0.00    +0.000 C 
ENDROOT
BRANCH   1   6
ATOM      3  C   UNL     1     -29.230   9.001  -8.244  0.00  0.00    +0.000 A 
ATOM      4  C   UNL     1     -29.164   8.318  -7.035  0.00  0.00    +0.000 A 
ATOM      5  C   UNL     1     -28.363   8.895  -6.083  0.00  0.00    +0.000 A 
ATOM      6  C   UNL     1     -28.121  10.272  -6.191  0.00  0.00    +0.000 A 
ATOM      7  C   UNL     1     -29.192  10.942  -6.791  0.00  0.00    +0.000 A 
ATOM      8  O   UNL     1     -29.315  12.303  -6.608  0.00  0.00    +0.000 OA
ATOM      9  C   UNL     1     -29.498  10.350  -8.022  0.00  0.00    +0.000 A 
BRANCH   3  10
ATOM     10  O   UNL     1     -28.942   8.465  -9.487  0.00  0.00    +0.000 OA
BRANCH  10  13
ATOM     11  C   UNL     1     -30.270   6.609 -11.138  0.00  0.00    +0.000 C 
ATOM     12  O   UNL     1     -30.883   7.493 -10.061  0.00  0.00    +0.000 OA
ATOM     13  C   UNL     1     -30.198   8.863 -10.333  0.00  0.00    +0.000 C 
ATOM     14  C   UNL     1     -29.670   8.431 -11.943  0.00  0.00    +0.000 C 
ATOM     15  O   UNL     1     -29.132   9.831 -12.184  0.00  0.00    +0.000 OA
ATOM     16  C   UNL     1     -28.117   7.720 -11.688  0.00  0.00    +0.000 C 
ATOM     17  O   UNL     1     -27.535   8.826 -10.832  0.00  0.00    +0.000 OA
ATOM     18  C   UNL     1     -28.671   6.655 -10.441  0.00  0.00    +0.000 C 
ATOM     19  O   UNL     1     -28.270   5.445 -11.236  0.00  0.00    +0.000 OA
BRANCH  11  21
ATOM     20  O   UNL     1     -31.312   5.180 -10.303  0.00  0.00    +0.000 OA
ATOM     21  C   UNL     1     -30.622   5.237 -10.270  0.00  0.00    +0.000 C 
ENDBRANCH  11  21
ENDBRANCH  10  13
ENDBRANCH   3  10
ENDBRANCH   1   6
BRANCH   2  22
ATOM     22  C   UNL     1     -24.906  10.460  -4.808  0.00  0.00    +0.000 A 
ATOM     23  C   UNL     1     -24.258   9.609  -5.711  0.00  0.00    +0.000 A 
ATOM     24  C   UNL     1     -24.266   8.228  -5.540  0.00  0.00    +0.000 A 
ATOM     25  O   UNL     1     -24.413   7.318  -6.592  0.00  0.00    +0.000 OA
ATOM     26  C   UNL     1     -24.383   7.726  -4.274  0.00  0.00    +0.000 A 
ATOM     27  C   UNL     1     -24.632   8.618  -3.244  0.00  0.00    +0.000 A 
ATOM     28  C   UNL     1     -24.984   9.932  -3.529  0.00  0.00    +0.000 A 
BRANCH  27  29
ATOM     29  O   UNL     1     -24.075   8.417  -1.976  0.00  0.00    +0.000 OA
BRANCH  29  30
ATOM     30  C   UNL     1     -24.384   6.922  -1.551  0.00  0.00    +0.000 C 
ATOM     31  O   UNL     1     -22.961   6.451  -1.263  0.00  0.00    +0.000 OA
ATOM     32  C   UNL     1     -22.348   6.988  -0.020  0.00  0.00    +0.000 C 
ATOM     33  C   UNL     1     -22.696   8.586  -0.581  0.00  0.00    +0.000 C 
ATOM     34  O   UNL     1     -21.714   9.181   0.403  0.00  0.00    +0.000 OA
ATOM     35  C   UNL     1     -23.932   8.605   0.601  0.00  0.00    +0.000 C 
ATOM     36  O   UNL     1     -24.774   9.647  -0.141  0.00  0.00    +0.000 OA
ATOM     37  C   UNL     1     -24.954   7.331   0.061  0.00  0.00    +0.000 C 
ATOM     38  O   UNL     1     -24.215   6.201   0.769  0.00  0.00    +0.000 OA
BRANCH  32  39
ATOM     39  C   UNL     1     -20.830   7.042  -0.735  0.00  0.00    +0.000 C 
ATOM     40  O   UNL     1     -20.058   6.169   0.006  0.00  0.00    +0.000 OA
ENDBRANCH  32  39
ENDBRANCH  29  30
ENDBRANCH  27  29
ENDBRANCH   2  22
TORSDOF 8
ENDMDL
MODEL 10
REMARK VINA RESULT:      -7.6     15.628     19.760
REMARK  Name = 
REMARK  8 active torsions:
REMARK  status: ('A' for Active; 'I' for Inactive)
REMARK    1  A    between atoms: C_2  and  C_3
REMARK    2  A    between atoms: C_5  and  O_6
REMARK    3  A    between atoms: O_6  and  C_7
REMARK    4  A    between atoms: C_10  and  C_11
REMARK    5  A    between atoms: C_12  and  C_13
REMARK    6  A    between atoms: C_18  and  O_19
REMARK    7  A    between atoms: O_19  and  C_20
REMARK    8  A    between atoms: C_22  and  C_23
REMARK                            x       y       z     vdW  Elec       q    Type
REMARK                         _______ _______ _______ _____ _____    ______ ____
ROOT
ATOM      1  C   UNL     1     -25.675  11.055  -6.154  0.00  0.00    +0.000 C 
ATOM      2  C   UNL     1     -24.499  10.905  -5.539  0.00  0.00    +0.000 C 
ENDROOT
BRANCH   1   6
ATOM      3  C   UNL     1     -27.558   8.076  -8.268  0.00  0.00    +0.000 A 
ATOM      4  C   UNL     1     -26.239   7.862  -7.885  0.00  0.00    +0.000 A 
ATOM      5  C   UNL     1     -25.602   8.953  -7.353  0.00  0.00    +0.000 A 
ATOM      6  C   UNL     1     -26.403   9.956  -6.787  0.00  0.00    +0.000 A 
ATOM      7  C   UNL     1     -27.590   9.437  -6.260  0.00  0.00    +0.000 A 
ATOM      8  O   UNL     1     -28.284  10.175  -5.326  0.00  0.00    +0.000 OA
ATOM      9  C   UNL     1     -28.265   8.697  -7.239  0.00  0.00    +0.000 A 
BRANCH   3  10
ATOM     10  O   UNL     1     -28.079   7.839  -9.529  0.00  0.00    +0.000 OA
BRANCH  10  13
ATOM     11  C   UNL     1     -30.241   6.543 -10.784  0.00  0.00    +0.000 C 
ATOM     12  O   UNL     1     -30.118   6.923  -9.316  0.00  0.00    +0.000 OA
ATOM     13  C   UNL     1     -29.546   8.368  -9.399  0.00  0.00    +0.000 C 
ATOM     14  C   UNL     1     -29.975   8.584 -11.081  0.00  0.00    +0.000 C 
ATOM     15  O   UNL     1     -29.510  10.030 -11.053  0.00  0.00    +0.000 OA
ATOM     16  C   UNL     1     -28.592   8.002 -11.935  0.00  0.00    +0.000 C 
ATOM     17  O   UNL     1     -27.548   8.797 -11.177  0.00  0.00    +0.000 OA
ATOM     18  C   UNL     1     -28.516   6.516 -11.051  0.00  0.00    +0.000 C 
ATOM     19  O   UNL     1     -28.704   5.710 -12.304  0.00  0.00    +0.000 OA
BRANCH  11  21
ATOM     20  O   UNL     1     -30.824   4.810 -10.090  0.00  0.00    +0.000 OA
ATOM     21  C   UNL     1     -30.220   4.925 -10.408  0.00  0.00    +0.000 C 
ENDBRANCH  11  21
ENDBRANCH  10  13
ENDBRANCH   3  10
ENDBRANCH   1   6
BRANCH   2  22
ATOM     22  C   UNL     1     -24.369  10.803  -4.061  0.00  0.00    +0.000 A 
ATOM     23  C   UNL     1     -23.797  11.849  -3.328  0.00  0.00    +0.000 A 
ATOM     24  C   UNL     1     -22.597  11.683  -2.643  0.00  0.00    +0.000 A 
ATOM     25  O   UNL     1     -21.593  12.656  -2.593  0.00  0.00    +0.000 OA
ATOM     26  C   UNL     1     -22.262  10.434  -2.202  0.00  0.00    +0.000 A 
ATOM     27  C   UNL     1     -23.067   9.374  -2.585  0.00  0.00    +0.000 A 
ATOM     28  C   UNL     1     -24.031   9.552  -3.571  0.00  0.00    +0.000 A 
BRANCH  27  29
ATOM     29  O   UNL     1     -23.304   8.306  -1.713  0.00  0.00    +0.000 OA
BRANCH  29  30
ATOM     30  C   UNL     1     -24.704   8.562  -1.016  0.00  0.00    +0.000 C 
ATOM     31  O   UNL     1     -25.425   7.285  -1.440  0.00  0.00    +0.000 OA
ATOM     32  C   UNL     1     -24.980   6.041  -0.756  0.00  0.00    +0.000 C 
ATOM     33  C   UNL     1     -23.360   6.394  -1.246  0.00  0.00    +0.000 C 
ATOM     34  O   UNL     1     -22.934   4.968  -0.977  0.00  0.00    +0.000 OA
ATOM     35  C   UNL     1     -23.082   6.813   0.389  0.00  0.00    +0.000 C 
ATOM     36  O   UNL     1     -21.920   7.756   0.062  0.00  0.00    +0.000 OA
ATOM     37  C   UNL     1     -24.157   8.139   0.600  0.00  0.00    +0.000 C 
ATOM     38  O   UNL     1     -25.386   7.313   0.960  0.00  0.00    +0.000 OA
BRANCH  32  39
ATOM     39  C   UNL     1     -25.228   5.132  -2.145  0.00  0.00    +0.000 C 
ATOM     40  O   UNL     1     -26.448   4.514  -1.950  0.00  0.00    +0.000 OA
ENDBRANCH  32  39
ENDBRANCH  29  30
ENDBRANCH  27  29
ENDBRANCH   2  22
TORSDOF 8
ENDMDL
