MODEL 1
REMARK VINA RESULT:      -9.4      0.000      0.000
REMARK  Name = 
REMARK  8 active torsions:
REMARK  status: ('A' for Active; 'I' for Inactive)
REMARK    1  A    between atoms: C_2  and  C_3
REMARK    2  A    between atoms: C_5  and  O_6
REMARK    3  A    between atoms: O_6  and  C_7
REMARK    4  A    between atoms: C_10  and  C_11
REMARK    5  A    between atoms: C_12  and  C_13
REMARK    6  A    between atoms: C_18  and  O_19
REMARK    7  A    between atoms: O_19  and  C_20
REMARK    8  A    between atoms: C_22  and  C_23
REMARK                            x       y       z     vdW  Elec       q    Type
REMARK                         _______ _______ _______ _____ _____    ______ ____
ROOT
ATOM      1  C   UNL     1     -24.128   8.912  -6.159  0.00  0.00    +0.000 C 
ATOM      2  C   UNL     1     -23.968   9.499  -4.995  0.00  0.00    +0.000 C 
ENDROOT
BRANCH   1   6
ATOM      3  C   UNL     1     -26.453   8.402  -9.388  0.00  0.00    +0.000 A 
ATOM      4  C   UNL     1     -26.370   7.317  -8.517  0.00  0.00    +0.000 A 
ATOM      5  C   UNL     1     -25.725   7.491  -7.299  0.00  0.00    +0.000 A 
ATOM      6  C   UNL     1     -25.431   8.756  -6.813  0.00  0.00    +0.000 A 
ATOM      7  C   UNL     1     -26.015   9.810  -7.506  0.00  0.00    +0.000 A 
ATOM      8  O   UNL     1     -25.644  11.104  -7.133  0.00  0.00    +0.000 OA
ATOM      9  C   UNL     1     -26.468   9.657  -8.813  0.00  0.00    +0.000 A 
BRANCH   3  10
ATOM     10  O   UNL     1     -27.055   8.198 -10.634  0.00  0.00    +0.000 OA
BRANCH  10  13
ATOM     11  C   UNL     1     -29.048   6.870 -12.400  0.00  0.00    +0.000 C 
ATOM     12  O   UNL     1     -27.988   6.422 -11.505  0.00  0.00    +0.000 OA
ATOM     13  C   UNL     1     -28.365   7.389 -10.406  0.00  0.00    +0.000 C 
ATOM     14  C   UNL     1     -29.395   8.587 -11.108  0.00  0.00    +0.000 C 
ATOM     15  O   UNL     1     -29.678   8.303 -12.564  0.00  0.00    +0.000 OA
ATOM     16  C   UNL     1     -30.802   7.755 -10.660  0.00  0.00    +0.000 C 
ATOM     17  O   UNL     1     -30.331   7.413  -9.268  0.00  0.00    +0.000 OA
ATOM     18  C   UNL     1     -30.415   6.301 -11.489  0.00  0.00    +0.000 C 
ATOM     19  O   UNL     1     -29.714   5.569 -10.386  0.00  0.00    +0.000 OA
BRANCH  11  21
ATOM     20  O   UNL     1     -28.786   8.472 -11.710  0.00  0.00    +0.000 OA
ATOM     21  C   UNL     1     -28.860   8.287 -11.706  0.00  0.00    +0.000 C 
ENDBRANCH  11  21
ENDBRANCH  10  13
ENDBRANCH   3  10
ENDBRANCH   1   6
BRANCH   2  22
ATOM     22  C   UNL     1     -23.369   8.824  -3.837  0.00  0.00    +0.000 A 
ATOM     23  C   UNL     1     -22.501   9.506  -2.988  0.00  0.00    +0.000 A 
ATOM     24  C   UNL     1     -22.768   9.497  -1.625  0.00  0.00    +0.000 A 
ATOM     25  O   UNL     1     -22.136  10.368  -0.750  0.00  0.00    +0.000 OA
ATOM     26  C   UNL     1     -23.564   8.514  -1.070  0.00  0.00    +0.000 A 
ATOM     27  C   UNL     1     -24.038   7.541  -1.874  0.00  0.00    +0.000 A 
ATOM     28  C   UNL     1     -23.906   7.687  -3.247  0.00  0.00    +0.000 A 
BRANCH  27  29
ATOM     29  O   UNL     1     -24.676   6.572  -1.414  0.00  0.00    +0.000 OA
BRANCH  29  30
ATOM     30  C   UNL     1     -26.210   6.240  -1.400  0.00  0.00    +0.000 C 
ATOM     31  O   UNL     1     -25.870   4.855  -1.689  0.00  0.00    +0.000 OA
ATOM     32  C   UNL     1     -26.555   3.618  -1.472  0.00  0.00    +0.000 C 
ATOM     33  C   UNL     1     -26.936   3.790   0.191  0.00  0.00    +0.000 C 
ATOM     34  O   UNL     1     -27.946   4.797  -0.242  0.00  0.00    +0.000 OA
ATOM     35  C   UNL     1     -25.663   4.754   0.791  0.00  0.00    +0.000 C 
ATOM     36  O   UNL     1     -24.550   4.625  -0.227  0.00  0.00    +0.000 OA
ATOM     37  C   UNL     1     -26.051   6.370   0.341  0.00  0.00    +0.000 C 
ATOM     38  O   UNL     1     -27.506   6.390   0.706  0.00  0.00    +0.000 OA
BRANCH  32  39
ATOM     39  C   UNL     1     -25.108   2.832  -1.245  0.00  0.00    +0.000 C 
ATOM     40  O   UNL     1     -24.884   1.909  -2.161  0.00  0.00    +0.000 OA
ENDBRANCH  32  39
ENDBRANCH  29  30
ENDBRANCH  27  29
ENDBRANCH   2  22
TORSDOF 8
ENDMDL
MODEL 2
REMARK VINA RESULT:      -9.3     13.568     18.539
REMARK  Name = 
REMARK  8 active torsions:
REMARK  status: ('A' for Active; 'I' for Inactive)
REMARK    1  A    between atoms: C_2  and  C_3
REMARK    2  A    between atoms: C_5  and  O_6
REMARK    3  A    between atoms: O_6  and  C_7
REMARK    4  A    between atoms: C_10  and  C_11
REMARK    5  A    between atoms: C_12  and  C_13
REMARK    6  A    between atoms: C_18  and  O_19
REMARK    7  A    between atoms: O_19  and  C_20
REMARK    8  A    between atoms: C_22  and  C_23
REMARK                            x       y       z     vdW  Elec       q    Type
REMARK                         _______ _______ _______ _____ _____    ______ ____
ROOT
ATOM      1  C   UNL     1     -37.861  -2.976  -7.647  0.00  0.00    +0.000 C 
ATOM      2  C   UNL     1     -38.234  -2.548  -8.832  0.00  0.00    +0.000 C 
ENDROOT
BRANCH   1   6
ATOM      3  C   UNL     1     -35.057  -3.440  -4.817  0.00  0.00    +0.000 A 
ATOM      4  C   UNL     1     -34.834  -4.117  -6.014  0.00  0.00    +0.000 A 
ATOM      5  C   UNL     1     -35.675  -3.858  -7.089  0.00  0.00    +0.000 A 
ATOM      6  C   UNL     1     -36.519  -2.758  -7.096  0.00  0.00    +0.000 A 
ATOM      7  C   UNL     1     -36.305  -1.837  -6.078  0.00  0.00    +0.000 A 
ATOM      8  O   UNL     1     -37.213  -0.782  -5.968  0.00  0.00    +0.000 OA
ATOM      9  C   UNL     1     -35.632  -2.188  -4.911  0.00  0.00    +0.000 A 
BRANCH   3  10
ATOM     10  O   UNL     1     -34.239  -3.751  -3.726  0.00  0.00    +0.000 OA
BRANCH  10  13
ATOM     11  C   UNL     1     -32.817  -5.923  -2.271  0.00  0.00    +0.000 C 
ATOM     12  O   UNL     1     -33.993  -5.841  -3.130  0.00  0.00    +0.000 OA
ATOM     13  C   UNL     1     -33.321  -4.938  -4.138  0.00  0.00    +0.000 C 
ATOM     14  C   UNL     1     -31.906  -4.290  -3.385  0.00  0.00    +0.000 C 
ATOM     15  O   UNL     1     -31.705  -4.845  -1.994  0.00  0.00    +0.000 OA
ATOM     16  C   UNL     1     -30.912  -5.505  -4.026  0.00  0.00    +0.000 C 
ATOM     17  O   UNL     1     -31.514  -5.471  -5.408  0.00  0.00    +0.000 OA
ATOM     18  C   UNL     1     -31.778  -6.819  -3.338  0.00  0.00    +0.000 C 
ATOM     19  O   UNL     1     -32.729  -7.101  -4.461  0.00  0.00    +0.000 OA
BRANCH  11  21
ATOM     20  O   UNL     1     -32.473  -4.260  -2.749  0.00  0.00    +0.000 OA
ATOM     21  C   UNL     1     -32.496  -4.455  -2.786  0.00  0.00    +0.000 C 
ENDBRANCH  11  21
ENDBRANCH  10  13
ENDBRANCH   3  10
ENDBRANCH   1   6
BRANCH   2  22
ATOM     22  C   UNL     1     -38.724  -3.446  -9.886  0.00  0.00    +0.000 A 
ATOM     23  C   UNL     1     -39.362  -2.936 -11.013  0.00  0.00    +0.000 A 
ATOM     24  C   UNL     1     -38.891  -3.312 -12.265  0.00  0.00    +0.000 A 
ATOM     25  O   UNL     1     -39.270  -2.645 -13.420  0.00  0.00    +0.000 OA
ATOM     26  C   UNL     1     -38.142  -4.462 -12.420  0.00  0.00    +0.000 A 
ATOM     27  C   UNL     1     -37.918  -5.234 -11.336  0.00  0.00    +0.000 A 
ATOM     28  C   UNL     1     -38.242  -4.734 -10.083  0.00  0.00    +0.000 A 
BRANCH  27  29
ATOM     29  O   UNL     1     -37.338  -6.335 -11.432  0.00  0.00    +0.000 OA
BRANCH  29  30
ATOM     30  C   UNL     1     -37.873  -7.809 -11.365  0.00  0.00    +0.000 C 
ATOM     31  O   UNL     1     -37.277  -8.040 -12.672  0.00  0.00    +0.000 OA
ATOM     32  C   UNL     1     -36.841  -9.223 -13.348  0.00  0.00    +0.000 C 
ATOM     33  C   UNL     1     -35.848  -9.901 -12.126  0.00  0.00    +0.000 C 
ATOM     34  O   UNL     1     -37.114 -10.229 -11.411  0.00  0.00    +0.000 OA
ATOM     35  C   UNL     1     -35.271  -8.535 -11.282  0.00  0.00    +0.000 C 
ATOM     36  O   UNL     1     -35.465  -7.369 -12.228  0.00  0.00    +0.000 OA
ATOM     37  C   UNL     1     -36.554  -8.058 -10.238  0.00  0.00    +0.000 C 
ATOM     38  O   UNL     1     -36.955  -9.400  -9.703  0.00  0.00    +0.000 OA
BRANCH  32  39
ATOM     39  C   UNL     1     -35.635  -8.369 -14.108  0.00  0.00    +0.000 C 
ATOM     40  O   UNL     1     -35.729  -8.421 -15.423  0.00  0.00    +0.000 OA
ENDBRANCH  32  39
ENDBRANCH  29  30
ENDBRANCH  27  29
ENDBRANCH   2  22
TORSDOF 8
ENDMDL
MODEL 3
REMARK VINA RESULT:      -9.0      1.183      2.215
REMARK  Name = 
REMARK  8 active torsions:
REMARK  status: ('A' for Active; 'I' for Inactive)
REMARK    1  A    between atoms: C_2  and  C_3
REMARK    2  A    between atoms: C_5  and  O_6
REMARK    3  A    between atoms: O_6  and  C_7
REMARK    4  A    between atoms: C_10  and  C_11
REMARK    5  A    between atoms: C_12  and  C_13
REMARK    6  A    between atoms: C_18  and  O_19
REMARK    7  A    between atoms: O_19  and  C_20
REMARK    8  A    between atoms: C_22  and  C_23
REMARK                            x       y       z     vdW  Elec       q    Type
REMARK                         _______ _______ _______ _____ _____    ______ ____
ROOT
ATOM      1  C   UNL     1     -24.359   9.529  -6.270  0.00  0.00    +0.000 C 
ATOM      2  C   UNL     1     -24.243  10.070  -5.079  0.00  0.00    +0.000 C 
ENDROOT
BRANCH   1   6
ATOM      3  C   UNL     1     -26.639   8.333  -9.346  0.00  0.00    +0.000 A 
ATOM      4  C   UNL     1     -26.488   7.418  -8.306  0.00  0.00    +0.000 A 
ATOM      5  C   UNL     1     -25.858   7.836  -7.141  0.00  0.00    +0.000 A 
ATOM      6  C   UNL     1     -25.649   9.181  -6.876  0.00  0.00    +0.000 A 
ATOM      7  C   UNL     1     -26.299  10.063  -7.731  0.00  0.00    +0.000 A 
ATOM      8  O   UNL     1     -26.014  11.423  -7.584  0.00  0.00    +0.000 OA
ATOM      9  C   UNL     1     -26.738   9.664  -8.990  0.00  0.00    +0.000 A 
BRANCH   3  10
ATOM     10  O   UNL     1     -27.224   7.884 -10.534  0.00  0.00    +0.000 OA
BRANCH  10  13
ATOM     11  C   UNL     1     -29.902   6.604 -10.749  0.00  0.00    +0.000 C 
ATOM     12  O   UNL     1     -29.140   7.254  -9.689  0.00  0.00    +0.000 OA
ATOM     13  C   UNL     1     -28.693   8.397 -10.570  0.00  0.00    +0.000 C 
ATOM     14  C   UNL     1     -28.970   7.922 -12.209  0.00  0.00    +0.000 C 
ATOM     15  O   UNL     1     -29.626   6.565 -12.298  0.00  0.00    +0.000 OA
ATOM     16  C   UNL     1     -30.489   8.673 -12.253  0.00  0.00    +0.000 C 
ATOM     17  O   UNL     1     -30.049   9.933 -11.551  0.00  0.00    +0.000 OA
ATOM     18  C   UNL     1     -31.155   7.795 -10.936  0.00  0.00    +0.000 C 
ATOM     19  O   UNL     1     -30.804   8.728  -9.817  0.00  0.00    +0.000 OA
BRANCH  11  21
ATOM     20  O   UNL     1     -28.630   7.248 -11.787  0.00  0.00    +0.000 OA
ATOM     21  C   UNL     1     -28.820   7.226 -11.733  0.00  0.00    +0.000 C 
ENDBRANCH  11  21
ENDBRANCH  10  13
ENDBRANCH   3  10
ENDBRANCH   1   6
BRANCH   2  22
ATOM     22  C   UNL     1     -23.476   9.450  -3.992  0.00  0.00    +0.000 A 
ATOM     23  C   UNL     1     -22.560  10.195  -3.254  0.00  0.00    +0.000 A 
ATOM     24  C   UNL     1     -22.668  10.190  -1.868  0.00  0.00    +0.000 A 
ATOM     25  O   UNL     1     -21.996  11.110  -1.079  0.00  0.00    +0.000 OA
ATOM     26  C   UNL     1     -23.335   9.170  -1.218  0.00  0.00    +0.000 A 
ATOM     27  C   UNL     1     -23.837   8.158  -1.955  0.00  0.00    +0.000 A 
ATOM     28  C   UNL     1     -23.872   8.291  -3.335  0.00  0.00    +0.000 A 
BRANCH  27  29
ATOM     29  O   UNL     1     -24.358   7.160  -1.416  0.00  0.00    +0.000 OA
BRANCH  29  30
ATOM     30  C   UNL     1     -23.854   5.683  -1.241  0.00  0.00    +0.000 C 
ATOM     31  O   UNL     1     -24.180   5.784   0.173  0.00  0.00    +0.000 OA
ATOM     32  C   UNL     1     -24.480   4.809   1.176  0.00  0.00    +0.000 C 
ATOM     33  C   UNL     1     -25.699   3.923   0.358  0.00  0.00    +0.000 C 
ATOM     34  O   UNL     1     -24.601   3.379  -0.491  0.00  0.00    +0.000 OA
ATOM     35  C   UNL     1     -26.425   5.090  -0.653  0.00  0.00    +0.000 C 
ATOM     36  O   UNL     1     -26.041   6.429  -0.058  0.00  0.00    +0.000 OA
ATOM     37  C   UNL     1     -25.371   5.253  -2.005  0.00  0.00    +0.000 C 
ATOM     38  O   UNL     1     -25.091   3.806  -2.281  0.00  0.00    +0.000 OA
BRANCH  32  39
ATOM     39  C   UNL     1     -25.507   5.873   1.934  0.00  0.00    +0.000 C 
ATOM     40  O   UNL     1     -25.277   5.962   3.230  0.00  0.00    +0.000 OA
ENDBRANCH  32  39
ENDBRANCH  29  30
ENDBRANCH  27  29
ENDBRANCH   2  22
TORSDOF 8
ENDMDL
MODEL 4
REMARK VINA RESULT:      -8.9     16.058     20.912
REMARK  Name = 
REMARK  8 active torsions:
REMARK  status: ('A' for Active; 'I' for Inactive)
REMARK    1  A    between atoms: C_2  and  C_3
REMARK    2  A    between atoms: C_5  and  O_6
REMARK    3  A    between atoms: O_6  and  C_7
REMARK    4  A    between atoms: C_10  and  C_11
REMARK    5  A    between atoms: C_12  and  C_13
REMARK    6  A    between atoms: C_18  and  O_19
REMARK    7  A    between atoms: O_19  and  C_20
REMARK    8  A    between atoms: C_22  and  C_23
REMARK                            x       y       z     vdW  Elec       q    Type
REMARK                         _______ _______ _______ _____ _____    ______ ____
ROOT
ATOM      1  C   UNL     1     -19.791  -6.776   9.276  0.00  0.00    +0.000 C 
ATOM      2  C   UNL     1     -20.555  -7.836   9.404  0.00  0.00    +0.000 C 
ENDROOT
BRANCH   1   6
ATOM      3  C   UNL     1     -19.295  -2.796   9.291  0.00  0.00    +0.000 A 
ATOM      4  C   UNL     1     -20.105  -3.306   8.279  0.00  0.00    +0.000 A 
ATOM      5  C   UNL     1     -20.456  -4.649   8.323  0.00  0.00    +0.000 A 
ATOM      6  C   UNL     1     -20.274  -5.405   9.472  0.00  0.00    +0.000 A 
ATOM      7  C   UNL     1     -19.935  -4.683  10.611  0.00  0.00    +0.000 A 
ATOM      8  O   UNL     1     -19.615  -5.413  11.758  0.00  0.00    +0.000 OA
ATOM      9  C   UNL     1     -19.386  -3.407  10.525  0.00  0.00    +0.000 A 
BRANCH   3  10
ATOM     10  O   UNL     1     -18.903  -1.456   9.204  0.00  0.00    +0.000 OA
BRANCH  10  13
ATOM     11  C   UNL     1     -17.560   0.675   7.618  0.00  0.00    +0.000 C 
ATOM     12  O   UNL     1     -17.375  -0.760   7.802  0.00  0.00    +0.000 OA
ATOM     13  C   UNL     1     -18.851  -1.068   7.697  0.00  0.00    +0.000 C 
ATOM     14  C   UNL     1     -19.703   0.422   7.905  0.00  0.00    +0.000 C 
ATOM     15  O   UNL     1     -18.761   1.592   8.060  0.00  0.00    +0.000 OA
ATOM     16  C   UNL     1     -19.790   0.698   6.235  0.00  0.00    +0.000 C 
ATOM     17  O   UNL     1     -20.160  -0.719   5.873  0.00  0.00    +0.000 OA
ATOM     18  C   UNL     1     -18.094   0.659   5.964  0.00  0.00    +0.000 C 
ATOM     19  O   UNL     1     -17.930  -0.796   5.646  0.00  0.00    +0.000 OA
BRANCH  11  21
ATOM     20  O   UNL     1     -19.074   0.461   8.499  0.00  0.00    +0.000 OA
ATOM     21  C   UNL     1     -18.962   0.456   8.333  0.00  0.00    +0.000 C 
ENDBRANCH  11  21
ENDBRANCH  10  13
ENDBRANCH   3  10
ENDBRANCH   1   6
BRANCH   2  22
ATOM     22  C   UNL     1     -20.770  -8.801   8.319  0.00  0.00    +0.000 A 
ATOM     23  C   UNL     1     -22.042  -9.005   7.790  0.00  0.00    +0.000 A 
ATOM     24  C   UNL     1     -22.211  -8.898   6.415  0.00  0.00    +0.000 A 
ATOM     25  O   UNL     1     -23.468  -8.802   5.838  0.00  0.00    +0.000 OA
ATOM     26  C   UNL     1     -21.134  -9.034   5.561  0.00  0.00    +0.000 A 
ATOM     27  C   UNL     1     -19.926  -9.318   6.089  0.00  0.00    +0.000 A 
ATOM     28  C   UNL     1     -19.763  -9.233   7.464  0.00  0.00    +0.000 A 
BRANCH  27  29
ATOM     29  O   UNL     1     -18.939  -9.554   5.362  0.00  0.00    +0.000 OA
BRANCH  29  30
ATOM     30  C   UNL     1     -18.816  -9.828   3.821  0.00  0.00    +0.000 C 
ATOM     31  O   UNL     1     -17.939  -8.671   3.728  0.00  0.00    +0.000 OA
ATOM     32  C   UNL     1     -16.930  -8.287   2.789  0.00  0.00    +0.000 C 
ATOM     33  C   UNL     1     -16.000  -9.727   2.763  0.00  0.00    +0.000 C 
ATOM     34  O   UNL     1     -17.127 -10.328   1.996  0.00  0.00    +0.000 OA
ATOM     35  C   UNL     1     -16.216 -10.366   4.330  0.00  0.00    +0.000 C 
ATOM     36  O   UNL     1     -16.691  -9.202   5.175  0.00  0.00    +0.000 OA
ATOM     37  C   UNL     1     -17.756 -11.136   4.310  0.00  0.00    +0.000 C 
ATOM     38  O   UNL     1     -17.659 -11.859   2.999  0.00  0.00    +0.000 OA
BRANCH  32  39
ATOM     39  C   UNL     1     -16.066  -7.535   3.994  0.00  0.00    +0.000 C 
ATOM     40  O   UNL     1     -15.525  -6.400   3.596  0.00  0.00    +0.000 OA
ENDBRANCH  32  39
ENDBRANCH  29  30
ENDBRANCH  27  29
ENDBRANCH   2  22
TORSDOF 8
ENDMDL
MODEL 5
REMARK VINA RESULT:      -8.9      1.448      2.618
REMARK  Name = 
REMARK  8 active torsions:
REMARK  status: ('A' for Active; 'I' for Inactive)
REMARK    1  A    between atoms: C_2  and  C_3
REMARK    2  A    between atoms: C_5  and  O_6
REMARK    3  A    between atoms: O_6  and  C_7
REMARK    4  A    between atoms: C_10  and  C_11
REMARK    5  A    between atoms: C_12  and  C_13
REMARK    6  A    between atoms: C_18  and  O_19
REMARK    7  A    between atoms: O_19  and  C_20
REMARK    8  A    between atoms: C_22  and  C_23
REMARK                            x       y       z     vdW  Elec       q    Type
REMARK                         _______ _______ _______ _____ _____    ______ ____
ROOT
ATOM      1  C   UNL     1     -24.567   8.529  -6.594  0.00  0.00    +0.000 C 
ATOM      2  C   UNL     1     -23.766   9.192  -5.791  0.00  0.00    +0.000 C 
ENDROOT
BRANCH   1   6
ATOM      3  C   UNL     1     -28.233   8.455  -8.220  0.00  0.00    +0.000 A 
ATOM      4  C   UNL     1     -28.091   9.228  -7.069  0.00  0.00    +0.000 A 
ATOM      5  C   UNL     1     -26.814   9.433  -6.561  0.00  0.00    +0.000 A 
ATOM      6  C   UNL     1     -25.684   9.149  -7.313  0.00  0.00    +0.000 A 
ATOM      7  C   UNL     1     -25.918   8.866  -8.654  0.00  0.00    +0.000 A 
ATOM      8  O   UNL     1     -24.827   8.447  -9.418  0.00  0.00    +0.000 OA
ATOM      9  C   UNL     1     -27.171   8.457  -9.102  0.00  0.00    +0.000 A 
BRANCH   3  10
ATOM     10  O   UNL     1     -29.528   8.210  -8.688  0.00  0.00    +0.000 OA
BRANCH  10  13
ATOM     11  C   UNL     1     -31.543   8.508 -10.857  0.00  0.00    +0.000 C 
ATOM     12  O   UNL     1     -30.485   9.340 -10.297  0.00  0.00    +0.000 OA
ATOM     13  C   UNL     1     -29.483   8.209 -10.244  0.00  0.00    +0.000 C 
ATOM     14  C   UNL     1     -30.366   6.733 -10.411  0.00  0.00    +0.000 C 
ATOM     15  O   UNL     1     -31.841   6.980 -10.626  0.00  0.00    +0.000 OA
ATOM     16  C   UNL     1     -30.118   6.680 -12.087  0.00  0.00    +0.000 C 
ATOM     17  O   UNL     1     -28.662   7.070 -12.030  0.00  0.00    +0.000 OA
ATOM     18  C   UNL     1     -30.839   8.204 -12.417  0.00  0.00    +0.000 C 
ATOM     19  O   UNL     1     -29.622   9.074 -12.333  0.00  0.00    +0.000 OA
BRANCH  11  21
ATOM     20  O   UNL     1     -30.881   7.177  -9.908  0.00  0.00    +0.000 OA
ATOM     21  C   UNL     1     -30.867   7.322 -10.044  0.00  0.00    +0.000 C 
ENDBRANCH  11  21
ENDBRANCH  10  13
ENDBRANCH   3  10
ENDBRANCH   1   6
BRANCH   2  22
ATOM     22  C   UNL     1     -23.588   8.843  -4.376  0.00  0.00    +0.000 A 
ATOM     23  C   UNL     1     -23.197   9.807  -3.451  0.00  0.00    +0.000 A 
ATOM     24  C   UNL     1     -23.966   9.974  -2.306  0.00  0.00    +0.000 A 
ATOM     25  O   UNL     1     -23.822  11.082  -1.483  0.00  0.00    +0.000 OA
ATOM     26  C   UNL     1     -24.799   8.966  -1.864  0.00  0.00    +0.000 A 
ATOM     27  C   UNL     1     -24.815   7.801  -2.544  0.00  0.00    +0.000 A 
ATOM     28  C   UNL     1     -24.181   7.739  -3.776  0.00  0.00    +0.000 A 
BRANCH  27  29
ATOM     29  O   UNL     1     -25.468   6.820  -2.134  0.00  0.00    +0.000 OA
BRANCH  29  30
ATOM     30  C   UNL     1     -25.087   5.306  -1.963  0.00  0.00    +0.000 C 
ATOM     31  O   UNL     1     -24.841   5.570  -0.554  0.00  0.00    +0.000 OA
ATOM     32  C   UNL     1     -24.835   4.735   0.608  0.00  0.00    +0.000 C 
ATOM     33  C   UNL     1     -26.356   3.967   0.416  0.00  0.00    +0.000 C 
ATOM     34  O   UNL     1     -25.723   3.203  -0.696  0.00  0.00    +0.000 OA
ATOM     35  C   UNL     1     -27.289   5.137  -0.404  0.00  0.00    +0.000 C 
ATOM     36  O   UNL     1     -26.576   6.453  -0.171  0.00  0.00    +0.000 OA
ATOM     37  C   UNL     1     -26.817   5.035  -2.056  0.00  0.00    +0.000 C 
ATOM     38  O   UNL     1     -26.810   3.544  -2.223  0.00  0.00    +0.000 OA
BRANCH  32  39
ATOM     39  C   UNL     1     -25.385   5.995   1.542  0.00  0.00    +0.000 C 
ATOM     40  O   UNL     1     -24.708   6.124   2.667  0.00  0.00    +0.000 OA
ENDBRANCH  32  39
ENDBRANCH  29  30
ENDBRANCH  27  29
ENDBRANCH   2  22
TORSDOF 8
ENDMDL
MODEL 6
REMARK VINA RESULT:      -8.8     13.476     18.378
REMARK  Name = 
REMARK  8 active torsions:
REMARK  status: ('A' for Active; 'I' for Inactive)
REMARK    1  A    between atoms: C_2  and  C_3
REMARK    2  A    between atoms: C_5  and  O_6
REMARK    3  A    between atoms: O_6  and  C_7
REMARK    4  A    between atoms: C_10  and  C_11
REMARK    5  A    between atoms: C_12  and  C_13
REMARK    6  A    between atoms: C_18  and  O_19
REMARK    7  A    between atoms: O_19  and  C_20
REMARK    8  A    between atoms: C_22  and  C_23
REMARK                            x       y       z     vdW  Elec       q    Type
REMARK                         _______ _______ _______ _____ _____    ______ ____
ROOT
ATOM      1  C   UNL     1     -37.743  -2.998  -7.622  0.00  0.00    +0.000 C 
ATOM      2  C   UNL     1     -38.066  -2.574  -8.823  0.00  0.00    +0.000 C 
ENDROOT
BRANCH   1   6
ATOM      3  C   UNL     1     -35.020  -3.631  -4.746  0.00  0.00    +0.000 A 
ATOM      4  C   UNL     1     -34.875  -4.394  -5.902  0.00  0.00    +0.000 A 
ATOM      5  C   UNL     1     -35.678  -4.099  -6.998  0.00  0.00    +0.000 A 
ATOM      6  C   UNL     1     -36.387  -2.909  -7.072  0.00  0.00    +0.000 A 
ATOM      7  C   UNL     1     -36.068  -1.965  -6.104  0.00  0.00    +0.000 A 
ATOM      8  O   UNL     1     -36.846  -0.806  -6.060  0.00  0.00    +0.000 OA
ATOM      9  C   UNL     1     -35.444  -2.327  -4.913  0.00  0.00    +0.000 A 
BRANCH   3  10
ATOM     10  O   UNL     1     -34.247  -3.975  -3.632  0.00  0.00    +0.000 OA
BRANCH  10  13
ATOM     11  C   UNL     1     -32.528  -5.940  -2.205  0.00  0.00    +0.000 C 
ATOM     12  O   UNL     1     -33.764  -6.004  -2.976  0.00  0.00    +0.000 OA
ATOM     13  C   UNL     1     -33.252  -5.091  -4.066  0.00  0.00    +0.000 C 
ATOM     14  C   UNL     1     -31.855  -4.283  -3.445  0.00  0.00    +0.000 C 
ATOM     15  O   UNL     1     -31.505  -4.754  -2.053  0.00  0.00    +0.000 OA
ATOM     16  C   UNL     1     -30.799  -5.430  -4.111  0.00  0.00    +0.000 C 
ATOM     17  O   UNL     1     -31.497  -5.514  -5.445  0.00  0.00    +0.000 OA
ATOM     18  C   UNL     1     -31.487  -6.785  -3.311  0.00  0.00    +0.000 C 
ATOM     19  O   UNL     1     -32.483  -7.203  -4.348  0.00  0.00    +0.000 OA
BRANCH  11  21
ATOM     20  O   UNL     1     -32.446  -4.285  -2.808  0.00  0.00    +0.000 OA
ATOM     21  C   UNL     1     -32.383  -4.473  -2.799  0.00  0.00    +0.000 C 
ENDBRANCH  11  21
ENDBRANCH  10  13
ENDBRANCH   3  10
ENDBRANCH   1   6
BRANCH   2  22
ATOM     22  C   UNL     1     -38.650  -3.449  -9.847  0.00  0.00    +0.000 A 
ATOM     23  C   UNL     1     -39.240  -2.912 -10.988  0.00  0.00    +0.000 A 
ATOM     24  C   UNL     1     -38.816  -3.371 -12.229  0.00  0.00    +0.000 A 
ATOM     25  O   UNL     1     -39.134  -2.704 -13.403  0.00  0.00    +0.000 OA
ATOM     26  C   UNL     1     -38.188  -4.594 -12.351  0.00  0.00    +0.000 A 
ATOM     27  C   UNL     1     -38.036  -5.352 -11.245  0.00  0.00    +0.000 A 
ATOM     28  C   UNL     1     -38.301  -4.785 -10.007  0.00  0.00    +0.000 A 
BRANCH  27  29
ATOM     29  O   UNL     1     -37.570  -6.508 -11.309  0.00  0.00    +0.000 OA
BRANCH  29  30
ATOM     30  C   UNL     1     -36.265  -7.075 -11.972  0.00  0.00    +0.000 C 
ATOM     31  O   UNL     1     -35.896  -7.625 -10.678  0.00  0.00    +0.000 OA
ATOM     32  C   UNL     1     -35.042  -8.705 -10.285  0.00  0.00    +0.000 C 
ATOM     33  C   UNL     1     -35.670  -9.945 -11.288  0.00  0.00    +0.000 C 
ATOM     34  O   UNL     1     -35.010  -9.233 -12.419  0.00  0.00    +0.000 OA
ATOM     35  C   UNL     1     -37.311  -9.516 -11.468  0.00  0.00    +0.000 C 
ATOM     36  O   UNL     1     -37.605  -8.567 -10.324  0.00  0.00    +0.000 OA
ATOM     37  C   UNL     1     -37.339  -8.276 -12.662  0.00  0.00    +0.000 C 
ATOM     38  O   UNL     1     -36.403  -8.875 -13.669  0.00  0.00    +0.000 OA
BRANCH  32  39
ATOM     39  C   UNL     1     -36.014  -9.023  -8.974  0.00  0.00    +0.000 C 
ATOM     40  O   UNL     1     -35.373  -8.900  -7.827  0.00  0.00    +0.000 OA
ENDBRANCH  32  39
ENDBRANCH  29  30
ENDBRANCH  27  29
ENDBRANCH   2  22
TORSDOF 8
ENDMDL
MODEL 7
REMARK VINA RESULT:      -8.8     14.896     19.126
REMARK  Name = 
REMARK  8 active torsions:
REMARK  status: ('A' for Active; 'I' for Inactive)
REMARK    1  A    between atoms: C_2  and  C_3
REMARK    2  A    between atoms: C_5  and  O_6
REMARK    3  A    between atoms: O_6  and  C_7
REMARK    4  A    between atoms: C_10  and  C_11
REMARK    5  A    between atoms: C_12  and  C_13
REMARK    6  A    between atoms: C_18  and  O_19
REMARK    7  A    between atoms: O_19  and  C_20
REMARK    8  A    between atoms: C_22  and  C_23
REMARK                            x       y       z     vdW  Elec       q    Type
REMARK                         _______ _______ _______ _____ _____    ______ ____
ROOT
ATOM      1  C   UNL     1     -21.251  -6.666   8.865  0.00  0.00    +0.000 C 
ATOM      2  C   UNL     1     -22.491  -6.406   9.210  0.00  0.00    +0.000 C 
ENDROOT
BRANCH   1   6
ATOM      3  C   UNL     1     -18.820  -3.529   8.282  0.00  0.00    +0.000 A 
ATOM      4  C   UNL     1     -19.686  -3.436   9.369  0.00  0.00    +0.000 A 
ATOM      5  C   UNL     1     -20.427  -4.557   9.726  0.00  0.00    +0.000 A 
ATOM      6  C   UNL     1     -20.115  -5.814   9.231  0.00  0.00    +0.000 A 
ATOM      7  C   UNL     1     -18.905  -5.903   8.552  0.00  0.00    +0.000 A 
ATOM      8  O   UNL     1     -18.612  -7.116   7.925  0.00  0.00    +0.000 OA
ATOM      9  C   UNL     1     -18.287  -4.775   8.020  0.00  0.00    +0.000 A 
BRANCH   3  10
ATOM     10  O   UNL     1     -18.124  -2.378   7.898  0.00  0.00    +0.000 OA
BRANCH  10  13
ATOM     11  C   UNL     1     -18.701  -0.089   6.086  0.00  0.00    +0.000 C 
ATOM     12  O   UNL     1     -19.366  -1.342   6.427  0.00  0.00    +0.000 OA
ATOM     13  C   UNL     1     -19.124  -1.186   7.910  0.00  0.00    +0.000 C 
ATOM     14  C   UNL     1     -17.903   0.022   8.108  0.00  0.00    +0.000 C 
ATOM     15  O   UNL     1     -17.480   0.616   6.785  0.00  0.00    +0.000 OA
ATOM     16  C   UNL     1     -19.046   1.258   8.311  0.00  0.00    +0.000 C 
ATOM     17  O   UNL     1     -19.948   0.471   9.228  0.00  0.00    +0.000 OA
ATOM     18  C   UNL     1     -19.836   1.012   6.806  0.00  0.00    +0.000 C 
ATOM     19  O   UNL     1     -20.900   0.052   7.241  0.00  0.00    +0.000 OA
BRANCH  11  21
ATOM     20  O   UNL     1     -17.654  -0.487   7.449  0.00  0.00    +0.000 OA
ATOM     21  C   UNL     1     -17.791  -0.375   7.357  0.00  0.00    +0.000 C 
ENDBRANCH  11  21
ENDBRANCH  10  13
ENDBRANCH   3  10
ENDBRANCH   1   6
BRANCH   2  22
ATOM     22  C   UNL     1     -23.571  -6.227   8.232  0.00  0.00    +0.000 A 
ATOM     23  C   UNL     1     -24.216  -7.328   7.676  0.00  0.00    +0.000 A 
ATOM     24  C   UNL     1     -25.603  -7.383   7.740  0.00  0.00    +0.000 A 
ATOM     25  O   UNL     1     -26.302  -8.551   7.476  0.00  0.00    +0.000 OA
ATOM     26  C   UNL     1     -26.345  -6.233   7.922  0.00  0.00    +0.000 A 
ATOM     27  C   UNL     1     -25.695  -5.052   7.992  0.00  0.00    +0.000 A 
ATOM     28  C   UNL     1     -24.314  -5.058   8.111  0.00  0.00    +0.000 A 
BRANCH  27  29
ATOM     29  O   UNL     1     -26.317  -3.972   8.052  0.00  0.00    +0.000 OA
BRANCH  29  30
ATOM     30  C   UNL     1     -25.974  -2.604   8.741  0.00  0.00    +0.000 C 
ATOM     31  O   UNL     1     -25.439  -2.145   7.469  0.00  0.00    +0.000 OA
ATOM     32  C   UNL     1     -25.235  -0.844   6.910  0.00  0.00    +0.000 C 
ATOM     33  C   UNL     1     -26.794  -0.177   7.161  0.00  0.00    +0.000 C 
ATOM     34  O   UNL     1     -26.430  -0.113   8.605  0.00  0.00    +0.000 OA
ATOM     35  C   UNL     1     -27.823  -1.536   7.084  0.00  0.00    +0.000 C 
ATOM     36  O   UNL     1     -27.022  -2.603   6.367  0.00  0.00    +0.000 OA
ATOM     37  C   UNL     1     -27.696  -2.303   8.620  0.00  0.00    +0.000 C 
ATOM     38  O   UNL     1     -27.786  -1.099   9.510  0.00  0.00    +0.000 OA
BRANCH  32  39
ATOM     39  C   UNL     1     -25.533  -1.431   5.383  0.00  0.00    +0.000 C 
ATOM     40  O   UNL     1     -24.426  -1.634   4.695  0.00  0.00    +0.000 OA
ENDBRANCH  32  39
ENDBRANCH  29  30
ENDBRANCH  27  29
ENDBRANCH   2  22
TORSDOF 8
ENDMDL
MODEL 8
REMARK VINA RESULT:      -8.7      1.517      2.666
REMARK  Name = 
REMARK  8 active torsions:
REMARK  status: ('A' for Active; 'I' for Inactive)
REMARK    1  A    between atoms: C_2  and  C_3
REMARK    2  A    between atoms: C_5  and  O_6
REMARK    3  A    between atoms: O_6  and  C_7
REMARK    4  A    between atoms: C_10  and  C_11
REMARK    5  A    between atoms: C_12  and  C_13
REMARK    6  A    between atoms: C_18  and  O_19
REMARK    7  A    between atoms: O_19  and  C_20
REMARK    8  A    between atoms: C_22  and  C_23
REMARK                            x       y       z     vdW  Elec       q    Type
REMARK                         _______ _______ _______ _____ _____    ______ ____
ROOT
ATOM      1  C   UNL     1     -24.045   9.683  -4.938  0.00  0.00    +0.000 C 
ATOM      2  C   UNL     1     -24.472   8.974  -3.919  0.00  0.00    +0.000 C 
ENDROOT
BRANCH   1   6
ATOM      3  C   UNL     1     -27.080   8.869  -7.432  0.00  0.00    +0.000 A 
ATOM      4  C   UNL     1     -26.804  10.219  -7.227  0.00  0.00    +0.000 A 
ATOM      5  C   UNL     1     -25.661  10.562  -6.516  0.00  0.00    +0.000 A 
ATOM      6  C   UNL     1     -24.659   9.635  -6.269  0.00  0.00    +0.000 A 
ATOM      7  C   UNL     1     -24.777   8.435  -6.960  0.00  0.00    +0.000 A 
ATOM      8  O   UNL     1     -23.865   7.425  -6.646  0.00  0.00    +0.000 OA
ATOM      9  C   UNL     1     -25.995   8.016  -7.487  0.00  0.00    +0.000 A 
BRANCH   3  10
ATOM     10  O   UNL     1     -28.263   8.535  -8.100  0.00  0.00    +0.000 OA
BRANCH  10  13
ATOM     11  C   UNL     1     -28.970   8.803 -10.978  0.00  0.00    +0.000 C 
ATOM     12  O   UNL     1     -27.793   9.084 -10.164  0.00  0.00    +0.000 OA
ATOM     13  C   UNL     1     -27.880   7.780  -9.405  0.00  0.00    +0.000 C 
ATOM     14  C   UNL     1     -29.464   7.138  -9.667  0.00  0.00    +0.000 C 
ATOM     15  O   UNL     1     -30.271   7.999 -10.609  0.00  0.00    +0.000 OA
ATOM     16  C   UNL     1     -28.947   6.180 -10.967  0.00  0.00    +0.000 C 
ATOM     17  O   UNL     1     -27.682   5.701 -10.300  0.00  0.00    +0.000 OA
ATOM     18  C   UNL     1     -28.334   7.479 -11.907  0.00  0.00    +0.000 C 
ATOM     19  O   UNL     1     -26.914   7.478 -11.432  0.00  0.00    +0.000 OA
BRANCH  11  21
ATOM     20  O   UNL     1     -29.544   7.988  -9.523  0.00  0.00    +0.000 OA
ATOM     21  C   UNL     1     -29.492   7.992  -9.715  0.00  0.00    +0.000 C 
ENDBRANCH  11  21
ENDBRANCH  10  13
ENDBRANCH   3  10
ENDBRANCH   1   6
BRANCH   2  22
ATOM     22  C   UNL     1     -23.621   8.017  -3.201  0.00  0.00    +0.000 A 
ATOM     23  C   UNL     1     -22.592   8.463  -2.375  0.00  0.00    +0.000 A 
ATOM     24  C   UNL     1     -22.545   7.996  -1.067  0.00  0.00    +0.000 A 
ATOM     25  O   UNL     1     -21.743   8.592  -0.106  0.00  0.00    +0.000 OA
ATOM     26  C   UNL     1     -23.186   6.825  -0.715  0.00  0.00    +0.000 A 
ATOM     27  C   UNL     1     -23.819   6.123  -1.677  0.00  0.00    +0.000 A 
ATOM     28  C   UNL     1     -24.000   6.710  -2.921  0.00  0.00    +0.000 A 
BRANCH  27  29
ATOM     29  O   UNL     1     -24.326   5.008  -1.440  0.00  0.00    +0.000 OA
BRANCH  29  30
ATOM     30  C   UNL     1     -24.773   4.325  -0.099  0.00  0.00    +0.000 C 
ATOM     31  O   UNL     1     -26.093   4.902  -0.294  0.00  0.00    +0.000 OA
ATOM     32  C   UNL     1     -27.394   4.543   0.182  0.00  0.00    +0.000 C 
ATOM     33  C   UNL     1     -27.412   2.886  -0.257  0.00  0.00    +0.000 C 
ATOM     34  O   UNL     1     -26.446   2.678   0.859  0.00  0.00    +0.000 OA
ATOM     35  C   UNL     1     -26.416   2.833  -1.641  0.00  0.00    +0.000 C 
ATOM     36  O   UNL     1     -26.362   4.258  -2.150  0.00  0.00    +0.000 OA
ATOM     37  C   UNL     1     -24.799   2.854  -1.052  0.00  0.00    +0.000 C 
ATOM     38  O   UNL     1     -24.924   1.857   0.061  0.00  0.00    +0.000 OA
BRANCH  32  39
ATOM     39  C   UNL     1     -28.086   5.109  -1.219  0.00  0.00    +0.000 C 
ATOM     40  O   UNL     1     -29.152   5.852  -0.993  0.00  0.00    +0.000 OA
ENDBRANCH  32  39
ENDBRANCH  29  30
ENDBRANCH  27  29
ENDBRANCH   2  22
TORSDOF 8
ENDMDL
MODEL 9
REMARK VINA RESULT:      -8.6      1.699      2.696
REMARK  Name = 
REMARK  8 active torsions:
REMARK  status: ('A' for Active; 'I' for Inactive)
REMARK    1  A    between atoms: C_2  and  C_3
REMARK    2  A    between atoms: C_5  and  O_6
REMARK    3  A    between atoms: O_6  and  C_7
REMARK    4  A    between atoms: C_10  and  C_11
REMARK    5  A    between atoms: C_12  and  C_13
REMARK    6  A    between atoms: C_18  and  O_19
REMARK    7  A    between atoms: O_19  and  C_20
REMARK    8  A    between atoms: C_22  and  C_23
REMARK                            x       y       z     vdW  Elec       q    Type
REMARK                         _______ _______ _______ _____ _____    ______ ____
ROOT
ATOM      1  C   UNL     1     -24.022   8.184  -6.630  0.00  0.00    +0.000 C 
ATOM      2  C   UNL     1     -23.798   9.286  -5.952  0.00  0.00    +0.000 C 
ENDROOT
BRANCH   1   6
ATOM      3  C   UNL     1     -27.354   9.385  -8.514  0.00  0.00    +0.000 A 
ATOM      4  C   UNL     1     -26.352   8.855  -9.324  0.00  0.00    +0.000 A 
ATOM      5  C   UNL     1     -25.250   8.264  -8.717  0.00  0.00    +0.000 A 
ATOM      6  C   UNL     1     -25.262   7.930  -7.371  0.00  0.00    +0.000 A 
ATOM      7  C   UNL     1     -26.500   8.020  -6.747  0.00  0.00    +0.000 A 
ATOM      8  O   UNL     1     -26.535   7.820  -5.365  0.00  0.00    +0.000 OA
ATOM      9  C   UNL     1     -27.527   8.796  -7.278  0.00  0.00    +0.000 A 
BRANCH   3  10
ATOM     10  O   UNL     1     -28.429  10.027  -9.137  0.00  0.00    +0.000 OA
BRANCH  10  13
ATOM     11  C   UNL     1     -30.447  10.301 -11.307  0.00  0.00    +0.000 C 
ATOM     12  O   UNL     1     -28.995  10.403 -11.216  0.00  0.00    +0.000 OA
ATOM     13  C   UNL     1     -28.859   9.165 -10.360  0.00  0.00    +0.000 C 
ATOM     14  C   UNL     1     -30.427   8.800  -9.731  0.00  0.00    +0.000 C 
ATOM     15  O   UNL     1     -31.478   9.751 -10.253  0.00  0.00    +0.000 OA
ATOM     16  C   UNL     1     -30.767   7.716 -10.989  0.00  0.00    +0.000 C 
ATOM     17  O   UNL     1     -29.414   7.050 -10.976  0.00  0.00    +0.000 OA
ATOM     18  C   UNL     1     -30.547   8.850 -12.260  0.00  0.00    +0.000 C 
ATOM     19  O   UNL     1     -29.095   8.620 -12.546  0.00  0.00    +0.000 OA
BRANCH  11  21
ATOM     20  O   UNL     1     -30.355   9.664  -9.665  0.00  0.00    +0.000 OA
ATOM     21  C   UNL     1     -30.364   9.644  -9.863  0.00  0.00    +0.000 C 
ENDBRANCH  11  21
ENDBRANCH  10  13
ENDBRANCH   3  10
ENDBRANCH   1   6
BRANCH   2  22
ATOM     22  C   UNL     1     -23.503   9.291  -4.514  0.00  0.00    +0.000 A 
ATOM     23  C   UNL     1     -23.307  10.490  -3.833  0.00  0.00    +0.000 A 
ATOM     24  C   UNL     1     -24.058  10.730  -2.688  0.00  0.00    +0.000 A 
ATOM     25  O   UNL     1     -24.138  11.991  -2.117  0.00  0.00    +0.000 OA
ATOM     26  C   UNL     1     -24.632   9.685  -1.991  0.00  0.00    +0.000 A 
ATOM     27  C   UNL     1     -24.410   8.426  -2.421  0.00  0.00    +0.000 A 
ATOM     28  C   UNL     1     -23.817   8.240  -3.661  0.00  0.00    +0.000 A 
BRANCH  27  29
ATOM     29  O   UNL     1     -24.816   7.439  -1.774  0.00  0.00    +0.000 OA
BRANCH  29  30
ATOM     30  C   UNL     1     -24.273   5.970  -1.655  0.00  0.00    +0.000 C 
ATOM     31  O   UNL     1     -24.294   6.125  -0.209  0.00  0.00    +0.000 OA
ATOM     32  C   UNL     1     -24.366   5.188   0.870  0.00  0.00    +0.000 C 
ATOM     33  C   UNL     1     -25.722   4.270   0.361  0.00  0.00    +0.000 C 
ATOM     34  O   UNL     1     -24.823   3.695  -0.679  0.00  0.00    +0.000 OA
ATOM     35  C   UNL     1     -26.656   5.397  -0.516  0.00  0.00    +0.000 C 
ATOM     36  O   UNL     1     -26.168   6.758  -0.065  0.00  0.00    +0.000 OA
ATOM     37  C   UNL     1     -25.913   5.510  -2.065  0.00  0.00    +0.000 C 
ATOM     38  O   UNL     1     -25.684   4.053  -2.341  0.00  0.00    +0.000 OA
BRANCH  32  39
ATOM     39  C   UNL     1     -25.220   6.279   1.788  0.00  0.00    +0.000 C 
ATOM     40  O   UNL     1     -24.978   6.153   3.079  0.00  0.00    +0.000 OA
ENDBRANCH  32  39
ENDBRANCH  29  30
ENDBRANCH  27  29
ENDBRANCH   2  22
TORSDOF 8
ENDMDL
MODEL 10
REMARK VINA RESULT:      -8.5      1.463      2.084
REMARK  Name = 
REMARK  8 active torsions:
REMARK  status: ('A' for Active; 'I' for Inactive)
REMARK    1  A    between atoms: C_2  and  C_3
REMARK    2  A    between atoms: C_5  and  O_6
REMARK    3  A    between atoms: O_6  and  C_7
REMARK    4  A    between atoms: C_10  and  C_11
REMARK    5  A    between atoms: C_12  and  C_13
REMARK    6  A    between atoms: C_18  and  O_19
REMARK    7  A    between atoms: O_19  and  C_20
REMARK    8  A    between atoms: C_22  and  C_23
REMARK                            x       y       z     vdW  Elec       q    Type
REMARK                         _______ _______ _______ _____ _____    ______ ____
ROOT
ATOM      1  C   UNL     1     -25.057  10.212  -5.610  0.00  0.00    +0.000 C 
ATOM      2  C   UNL     1     -25.215   9.391  -4.598  0.00  0.00    +0.000 C 
ENDROOT
BRANCH   1   6
ATOM      3  C   UNL     1     -27.078   8.128  -8.378  0.00  0.00    +0.000 A 
ATOM      4  C   UNL     1     -27.382   9.485  -8.293  0.00  0.00    +0.000 A 
ATOM      5  C   UNL     1     -26.596  10.292  -7.479  0.00  0.00    +0.000 A 
ATOM      6  C   UNL     1     -25.372   9.855  -6.997  0.00  0.00    +0.000 A 
ATOM      7  C   UNL     1     -24.900   8.673  -7.556  0.00  0.00    +0.000 A 
ATOM      8  O   UNL     1     -23.737   8.126  -7.009  0.00  0.00    +0.000 OA
ATOM      9  C   UNL     1     -25.756   7.777  -8.190  0.00  0.00    +0.000 A 
BRANCH   3  10
ATOM     10  O   UNL     1     -27.912   7.318  -9.156  0.00  0.00    +0.000 OA
BRANCH  10  13
ATOM     11  C   UNL     1     -30.066   6.902 -11.166  0.00  0.00    +0.000 C 
ATOM     12  O   UNL     1     -29.989   7.465  -9.823  0.00  0.00    +0.000 OA
ATOM     13  C   UNL     1     -28.724   8.241 -10.110  0.00  0.00    +0.000 C 
ATOM     14  C   UNL     1     -28.038   7.588 -11.556  0.00  0.00    +0.000 C 
ATOM     15  O   UNL     1     -28.905   6.504 -12.151  0.00  0.00    +0.000 OA
ATOM     16  C   UNL     1     -28.797   8.747 -12.534  0.00  0.00    +0.000 C 
ATOM     17  O   UNL     1     -28.503   9.916 -11.628  0.00  0.00    +0.000 OA
ATOM     18  C   UNL     1     -30.398   8.365 -12.043  0.00  0.00    +0.000 C 
ATOM     19  O   UNL     1     -30.544   9.330 -10.906  0.00  0.00    +0.000 OA
BRANCH  11  21
ATOM     20  O   UNL     1     -28.302   6.884 -11.149  0.00  0.00    +0.000 OA
ATOM     21  C   UNL     1     -28.479   6.977 -11.150  0.00  0.00    +0.000 C 
ENDBRANCH  11  21
ENDBRANCH  10  13
ENDBRANCH   3  10
ENDBRANCH   1   6
BRANCH   2  22
ATOM     22  C   UNL     1     -24.113   8.994  -3.713  0.00  0.00    +0.000 A 
ATOM     23  C   UNL     1     -23.059   9.867  -3.456  0.00  0.00    +0.000 A 
ATOM     24  C   UNL     1     -22.731  10.135  -2.133  0.00  0.00    +0.000 A 
ATOM     25  O   UNL     1     -21.901  11.191  -1.785  0.00  0.00    +0.000 OA
ATOM     26  C   UNL     1     -23.101   9.266  -1.126  0.00  0.00    +0.000 A 
ATOM     27  C   UNL     1     -23.747   8.131  -1.461  0.00  0.00    +0.000 A 
ATOM     28  C   UNL     1     -24.216   7.989  -2.758  0.00  0.00    +0.000 A 
BRANCH  27  29
ATOM     29  O   UNL     1     -24.015   7.260  -0.608  0.00  0.00    +0.000 OA
BRANCH  29  30
ATOM     30  C   UNL     1     -25.176   7.146   0.442  0.00  0.00    +0.000 C 
ATOM     31  O   UNL     1     -25.903   6.326  -0.514  0.00  0.00    +0.000 OA
ATOM     32  C   UNL     1     -26.940   5.349  -0.372  0.00  0.00    +0.000 C 
ATOM     33  C   UNL     1     -26.230   4.353   0.829  0.00  0.00    +0.000 C 
ATOM     34  O   UNL     1     -26.516   5.461   1.784  0.00  0.00    +0.000 OA
ATOM     35  C   UNL     1     -24.556   4.517   0.541  0.00  0.00    +0.000 C 
ATOM     36  O   UNL     1     -24.444   5.034  -0.878  0.00  0.00    +0.000 OA
ATOM     37  C   UNL     1     -24.106   6.019   1.252  0.00  0.00    +0.000 C 
ATOM     38  O   UNL     1     -24.833   5.905   2.559  0.00  0.00    +0.000 OA
BRANCH  32  39
ATOM     39  C   UNL     1     -26.352   4.505  -1.677  0.00  0.00    +0.000 C 
ATOM     40  O   UNL     1     -27.275   4.288  -2.595  0.00  0.00    +0.000 OA
ENDBRANCH  32  39
ENDBRANCH  29  30
ENDBRANCH  27  29
ENDBRANCH   2  22
TORSDOF 8
ENDMDL
