MODEL 1
REMARK VINA RESULT:      -8.4      0.000      0.000
REMARK  Name = 
REMARK  5 active torsions:
REMARK  status: ('A' for Active; 'I' for Inactive)
REMARK    1  A    between atoms: C_2  and  C_3
REMARK    2  A    between atoms: C_5  and  O_6
REMARK    3  A    between atoms: O_6  and  C_7
REMARK    4  A    between atoms: C_12  and  C_13
REMARK    5  A    between atoms: C_14  and  C_15
REMARK                            x       y       z     vdW  Elec       q    Type
REMARK                         _______ _______ _______ _____ _____    ______ ____
ROOT
ATOM      1  C   UNL     1     -15.286  15.700   0.782  0.00  0.00    +0.000 A 
ATOM      2  C   UNL     1     -14.148  16.298   1.268  0.00  0.00    +0.000 A 
ATOM      3  C   UNL     1     -13.091  15.596   1.823  0.00  0.00    +0.000 A 
ATOM      4  O   UNL     1     -11.770  15.979   1.704  0.00  0.00    +0.000 OA
ATOM      5  C   UNL     1     -13.331  14.233   1.972  0.00  0.00    +0.000 A 
ATOM      6  C   UNL     1     -14.614  13.708   1.958  0.00  0.00    +0.000 A 
ATOM      7  C   UNL     1     -15.552  14.416   1.244  0.00  0.00    +0.000 A 
ENDROOT
BRANCH   6   8
ATOM      8  C   UNL     1     -14.981  12.551   2.781  0.00  0.00    +0.000 C 
ATOM      9  C   UNL     1     -14.493  11.409   2.342  0.00  0.00    +0.000 C 
BRANCH   9  10
ATOM     10  C   UNL     1     -14.653  10.129   2.981  0.00  0.00    +0.000 A 
ATOM     11  C   UNL     1     -15.726   9.376   2.615  0.00  0.00    +0.000 A 
ATOM     12  C   UNL     1     -15.738   8.030   2.949  0.00  0.00    +0.000 A 
ATOM     13  C   UNL     1     -14.740   7.562   3.781  0.00  0.00    +0.000 A 
ATOM     14  O   UNL     1     -14.682   6.206   3.992  0.00  0.00    +0.000 OA
ATOM     15  C   UNL     1     -13.824   8.433   4.362  0.00  0.00    +0.000 A 
ATOM     16  C   UNL     1     -13.679   9.720   3.855  0.00  0.00    +0.000 A 
ATOM     17  O   UNL     1     -12.518  10.450   4.093  0.00  0.00    +0.000 OA
ENDBRANCH   9  10
ENDBRANCH   6   8
BRANCH   1  18
ATOM     18  O   UNL     1     -16.019  16.221  -0.296  0.00  0.00    +0.000 OA
BRANCH  18  21
ATOM     19  C   UNL     1     -15.473  19.176  -0.524  0.00  0.00    +0.000 C 
ATOM     20  O   UNL     1     -16.567  18.258  -1.051  0.00  0.00    +0.000 OA
ATOM     21  C   UNL     1     -15.240  17.534  -0.685  0.00  0.00    +0.000 C 
ATOM     22  C   UNL     1     -14.926  17.020  -2.305  0.00  0.00    +0.000 C 
ATOM     23  O   UNL     1     -13.472  17.435  -2.178  0.00  0.00    +0.000 OA
ATOM     24  C   UNL     1     -15.305  18.460  -3.172  0.00  0.00    +0.000 C 
ATOM     25  O   UNL     1     -16.812  18.432  -2.956  0.00  0.00    +0.000 OA
ATOM     26  C   UNL     1     -14.877  19.706  -2.057  0.00  0.00    +0.000 C 
ATOM     27  O   UNL     1     -16.116  20.520  -2.431  0.00  0.00    +0.000 OA
BRANCH  19  29
ATOM     28  O   UNL     1     -16.840  20.285   0.363  0.00  0.00    +0.000 OA
ATOM     29  C   UNL     1     -16.493  20.467  -0.245  0.00  0.00    +0.000 C 
ENDBRANCH  19  29
ENDBRANCH  18  21
ENDBRANCH   1  18
TORSDOF 5
ENDMDL
MODEL 2
REMARK VINA RESULT:      -8.2      2.095      3.465
REMARK  Name = 
REMARK  5 active torsions:
REMARK  status: ('A' for Active; 'I' for Inactive)
REMARK    1  A    between atoms: C_2  and  C_3
REMARK    2  A    between atoms: C_5  and  O_6
REMARK    3  A    between atoms: O_6  and  C_7
REMARK    4  A    between atoms: C_12  and  C_13
REMARK    5  A    between atoms: C_14  and  C_15
REMARK                            x       y       z     vdW  Elec       q    Type
REMARK                         _______ _______ _______ _____ _____    ______ ____
ROOT
ATOM      1  C   UNL     1     -13.413  15.469   1.624  0.00  0.00    +0.000 A 
ATOM      2  C   UNL     1     -14.561  15.436   0.869  0.00  0.00    +0.000 A 
ATOM      3  C   UNL     1     -15.630  14.596   1.138  0.00  0.00    +0.000 A 
ATOM      4  O   UNL     1     -16.949  14.938   0.909  0.00  0.00    +0.000 OA
ATOM      5  C   UNL     1     -15.394  13.686   2.163  0.00  0.00    +0.000 A 
ATOM      6  C   UNL     1     -14.110  13.372   2.583  0.00  0.00    +0.000 A 
ATOM      7  C   UNL     1     -13.157  14.347   2.404  0.00  0.00    +0.000 A 
ENDROOT
BRANCH   6   8
ATOM      8  C   UNL     1     -13.762  12.026   3.052  0.00  0.00    +0.000 C 
ATOM      9  C   UNL     1     -14.686  11.122   2.808  0.00  0.00    +0.000 C 
BRANCH   9  10
ATOM     10  C   UNL     1     -14.586   9.718   3.113  0.00  0.00    +0.000 A 
ATOM     11  C   UNL     1     -13.667   9.343   4.045  0.00  0.00    +0.000 A 
ATOM     12  C   UNL     1     -13.762   8.077   4.600  0.00  0.00    +0.000 A 
ATOM     13  C   UNL     1     -14.682   7.201   4.058  0.00  0.00    +0.000 A 
ATOM     14  O   UNL     1     -14.864   6.001   4.702  0.00  0.00    +0.000 OA
ATOM     15  C   UNL     1     -15.403   7.535   2.916  0.00  0.00    +0.000 A 
ATOM     16  C   UNL     1     -15.469   8.863   2.507  0.00  0.00    +0.000 A 
ATOM     17  O   UNL     1     -16.495   9.299   1.673  0.00  0.00    +0.000 OA
ENDBRANCH   9  10
ENDBRANCH   6   8
BRANCH   1  18
ATOM     18  O   UNL     1     -12.656  16.637   1.808  0.00  0.00    +0.000 OA
BRANCH  18  21
ATOM     19  C   UNL     1     -13.501  18.370  -0.508  0.00  0.00    +0.000 C 
ATOM     20  O   UNL     1     -12.199  18.191   0.261  0.00  0.00    +0.000 OA
ATOM     21  C   UNL     1     -13.471  17.742   1.036  0.00  0.00    +0.000 C 
ATOM     22  C   UNL     1     -13.287  18.928   2.278  0.00  0.00    +0.000 C 
ATOM     23  O   UNL     1     -14.764  19.264   2.208  0.00  0.00    +0.000 OA
ATOM     24  C   UNL     1     -12.884  20.313   1.335  0.00  0.00    +0.000 C 
ATOM     25  O   UNL     1     -11.494  19.865   0.905  0.00  0.00    +0.000 OA
ATOM     26  C   UNL     1     -13.743  20.040  -0.137  0.00  0.00    +0.000 C 
ATOM     27  O   UNL     1     -12.565  20.554  -0.965  0.00  0.00    +0.000 OA
BRANCH  19  29
ATOM     28  O   UNL     1     -12.685  17.923  -2.245  0.00  0.00    +0.000 OA
ATOM     29  C   UNL     1     -12.763  18.595  -1.987  0.00  0.00    +0.000 C 
ENDBRANCH  19  29
ENDBRANCH  18  21
ENDBRANCH   1  18
TORSDOF 5
ENDMDL
MODEL 3
REMARK VINA RESULT:      -7.6      2.853      4.110
REMARK  Name = 
REMARK  5 active torsions:
REMARK  status: ('A' for Active; 'I' for Inactive)
REMARK    1  A    between atoms: C_2  and  C_3
REMARK    2  A    between atoms: C_5  and  O_6
REMARK    3  A    between atoms: O_6  and  C_7
REMARK    4  A    between atoms: C_12  and  C_13
REMARK    5  A    between atoms: C_14  and  C_15
REMARK                            x       y       z     vdW  Elec       q    Type
REMARK                         _______ _______ _______ _____ _____    ______ ____
ROOT
ATOM      1  C   UNL     1     -12.856  16.995   0.703  0.00  0.00    +0.000 A 
ATOM      2  C   UNL     1     -13.924  16.812  -0.142  0.00  0.00    +0.000 A 
ATOM      3  C   UNL     1     -15.038  16.056   0.184  0.00  0.00    +0.000 A 
ATOM      4  O   UNL     1     -16.317  16.351  -0.244  0.00  0.00    +0.000 OA
ATOM      5  C   UNL     1     -14.930  15.380   1.396  0.00  0.00    +0.000 A 
ATOM      6  C   UNL     1     -13.704  15.153   2.002  0.00  0.00    +0.000 A 
ATOM      7  C   UNL     1     -12.711  16.062   1.722  0.00  0.00    +0.000 A 
ENDROOT
BRANCH   6   8
ATOM      8  C   UNL     1     -13.442  13.934   2.775  0.00  0.00    +0.000 C 
ATOM      9  C   UNL     1     -13.722  12.823   2.126  0.00  0.00    +0.000 C 
BRANCH   9  10
ATOM     10  C   UNL     1     -13.515  11.487   2.625  0.00  0.00    +0.000 A 
ATOM     11  C   UNL     1     -12.242  11.129   2.949  0.00  0.00    +0.000 A 
ATOM     12  C   UNL     1     -12.048   9.998   3.727  0.00  0.00    +0.000 A 
ATOM     13  C   UNL     1     -13.143   9.200   3.990  0.00  0.00    +0.000 A 
ATOM     14  O   UNL     1     -12.967   8.162   4.873  0.00  0.00    +0.000 OA
ATOM     15  C   UNL     1     -14.375   9.454   3.397  0.00  0.00    +0.000 A 
ATOM     16  C   UNL     1     -14.616  10.693   2.813  0.00  0.00    +0.000 A 
ATOM     17  O   UNL     1     -15.918  11.143   2.612  0.00  0.00    +0.000 OA
ENDBRANCH   9  10
ENDBRANCH   6   8
BRANCH   1  18
ATOM     18  O   UNL     1     -12.088  18.170   0.716  0.00  0.00    +0.000 OA
BRANCH  18  21
ATOM     19  C   UNL     1     -13.782  19.679   2.701  0.00  0.00    +0.000 C 
ATOM     20  O   UNL     1     -13.192  20.018   1.338  0.00  0.00    +0.000 OA
ATOM     21  C   UNL     1     -12.471  18.857   2.081  0.00  0.00    +0.000 C 
ATOM     22  C   UNL     1     -10.974  19.708   2.221  0.00  0.00    +0.000 C 
ATOM     23  O   UNL     1     -10.837  19.278   3.668  0.00  0.00    +0.000 OA
ATOM     24  C   UNL     1     -11.539  21.266   2.693  0.00  0.00    +0.000 C 
ATOM     25  O   UNL     1     -12.178  21.657   1.368  0.00  0.00    +0.000 OA
ATOM     26  C   UNL     1     -12.959  20.901   3.603  0.00  0.00    +0.000 C 
ATOM     27  O   UNL     1     -13.707  22.081   2.982  0.00  0.00    +0.000 OA
BRANCH  19  29
ATOM     28  O   UNL     1     -15.682  20.011   2.294  0.00  0.00    +0.000 OA
ATOM     29  C   UNL     1     -15.199  20.525   2.457  0.00  0.00    +0.000 C 
ENDBRANCH  19  29
ENDBRANCH  18  21
ENDBRANCH   1  18
TORSDOF 5
ENDMDL
MODEL 4
REMARK VINA RESULT:      -7.6      1.929      2.950
REMARK  Name = 
REMARK  5 active torsions:
REMARK  status: ('A' for Active; 'I' for Inactive)
REMARK    1  A    between atoms: C_2  and  C_3
REMARK    2  A    between atoms: C_5  and  O_6
REMARK    3  A    between atoms: O_6  and  C_7
REMARK    4  A    between atoms: C_12  and  C_13
REMARK    5  A    between atoms: C_14  and  C_15
REMARK                            x       y       z     vdW  Elec       q    Type
REMARK                         _______ _______ _______ _____ _____    ______ ____
ROOT
ATOM      1  C   UNL     1     -12.924  17.802  -0.146  0.00  0.00    +0.000 A 
ATOM      2  C   UNL     1     -12.788  18.641   0.934  0.00  0.00    +0.000 A 
ATOM      3  C   UNL     1     -12.606  18.194   2.233  0.00  0.00    +0.000 A 
ATOM      4  O   UNL     1     -11.841  18.857   3.172  0.00  0.00    +0.000 OA
ATOM      5  C   UNL     1     -12.708  16.814   2.377  0.00  0.00    +0.000 A 
ATOM      6  C   UNL     1     -13.326  16.020   1.424  0.00  0.00    +0.000 A 
ATOM      7  C   UNL     1     -13.310  16.496   0.134  0.00  0.00    +0.000 A 
ENDROOT
BRANCH   6   8
ATOM      8  C   UNL     1     -14.082  14.819   1.796  0.00  0.00    +0.000 C 
ATOM      9  C   UNL     1     -13.325  13.802   2.152  0.00  0.00    +0.000 C 
BRANCH   9  10
ATOM     10  C   UNL     1     -13.803  12.523   2.610  0.00  0.00    +0.000 A 
ATOM     11  C   UNL     1     -15.108  12.219   2.373  0.00  0.00    +0.000 A 
ATOM     12  C   UNL     1     -15.516  10.900   2.495  0.00  0.00    +0.000 A 
ATOM     13  C   UNL     1     -14.615   9.991   3.014  0.00  0.00    +0.000 A 
ATOM     14  O   UNL     1     -14.980   8.666   3.001  0.00  0.00    +0.000 OA
ATOM     15  C   UNL     1     -13.383  10.405   3.510  0.00  0.00    +0.000 A 
ATOM     16  C   UNL     1     -12.898  11.667   3.184  0.00  0.00    +0.000 A 
ATOM     17  O   UNL     1     -11.539  11.950   3.275  0.00  0.00    +0.000 OA
ENDBRANCH   9  10
ENDBRANCH   6   8
BRANCH   1  18
ATOM     18  O   UNL     1     -12.474  18.138  -1.433  0.00  0.00    +0.000 OA
BRANCH  18  21
ATOM     19  C   UNL     1     -15.251  18.694  -2.466  0.00  0.00    +0.000 C 
ATOM     20  O   UNL     1     -14.130  17.757  -2.894  0.00  0.00    +0.000 OA
ATOM     21  C   UNL     1     -13.662  18.973  -2.043  0.00  0.00    +0.000 C 
ATOM     22  C   UNL     1     -12.703  19.651  -3.311  0.00  0.00    +0.000 C 
ATOM     23  O   UNL     1     -13.252  21.034  -3.017  0.00  0.00    +0.000 OA
ATOM     24  C   UNL     1     -13.772  19.464  -4.650  0.00  0.00    +0.000 C 
ATOM     25  O   UNL     1     -13.690  17.948  -4.761  0.00  0.00    +0.000 OA
ATOM     26  C   UNL     1     -15.330  19.617  -3.924  0.00  0.00    +0.000 C 
ATOM     27  O   UNL     1     -15.887  18.488  -4.791  0.00  0.00    +0.000 OA
BRANCH  19  29
ATOM     28  O   UNL     1     -16.641  17.324  -2.196  0.00  0.00    +0.000 OA
ATOM     29  C   UNL     1     -16.478  17.626  -2.833  0.00  0.00    +0.000 C 
ENDBRANCH  19  29
ENDBRANCH  18  21
ENDBRANCH   1  18
TORSDOF 5
ENDMDL
MODEL 5
REMARK VINA RESULT:      -7.6     14.527     16.015
REMARK  Name = 
REMARK  5 active torsions:
REMARK  status: ('A' for Active; 'I' for Inactive)
REMARK    1  A    between atoms: C_2  and  C_3
REMARK    2  A    between atoms: C_5  and  O_6
REMARK    3  A    between atoms: O_6  and  C_7
REMARK    4  A    between atoms: C_12  and  C_13
REMARK    5  A    between atoms: C_14  and  C_15
REMARK                            x       y       z     vdW  Elec       q    Type
REMARK                         _______ _______ _______ _____ _____    ______ ____
ROOT
ATOM      1  C   UNL     1     -26.191   9.080  -8.354  0.00  0.00    +0.000 A 
ATOM      2  C   UNL     1     -26.738  10.217  -7.808  0.00  0.00    +0.000 A 
ATOM      3  C   UNL     1     -26.166  10.912  -6.755  0.00  0.00    +0.000 A 
ATOM      4  O   UNL     1     -26.237  12.284  -6.614  0.00  0.00    +0.000 OA
ATOM      5  C   UNL     1     -25.052  10.288  -6.201  0.00  0.00    +0.000 A 
ATOM      6  C   UNL     1     -24.793   8.941  -6.397  0.00  0.00    +0.000 A 
ATOM      7  C   UNL     1     -25.282   8.391  -7.558  0.00  0.00    +0.000 A 
ENDROOT
BRANCH   6   8
ATOM      8  C   UNL     1     -24.166   8.119  -5.356  0.00  0.00    +0.000 C 
ATOM      9  C   UNL     1     -24.069   8.720  -4.189  0.00  0.00    +0.000 C 
BRANCH   9  10
ATOM     10  C   UNL     1     -23.543   8.131  -2.984  0.00  0.00    +0.000 A 
ATOM     11  C   UNL     1     -23.819   6.817  -2.757  0.00  0.00    +0.000 A 
ATOM     12  C   UNL     1     -23.074   6.138  -1.805  0.00  0.00    +0.000 A 
ATOM     13  C   UNL     1     -22.207   6.871  -1.019  0.00  0.00    +0.000 A 
ATOM     14  O   UNL     1     -21.376   6.172  -0.178  0.00  0.00    +0.000 OA
ATOM     15  C   UNL     1     -22.168   8.260  -1.097  0.00  0.00    +0.000 A 
ATOM     16  C   UNL     1     -22.739   8.905  -2.188  0.00  0.00    +0.000 A 
ATOM     17  O   UNL     1     -22.355  10.199  -2.528  0.00  0.00    +0.000 OA
ENDBRANCH   9  10
ENDBRANCH   6   8
BRANCH   1  18
ATOM     18  O   UNL     1     -26.327   8.745  -9.710  0.00  0.00    +0.000 OA
BRANCH  18  21
ATOM     19  C   UNL     1     -28.605   6.832 -10.197  0.00  0.00    +0.000 C 
ATOM     20  O   UNL     1     -27.470   7.367 -11.059  0.00  0.00    +0.000 OA
ATOM     21  C   UNL     1     -27.820   8.256  -9.831  0.00  0.00    +0.000 C 
ATOM     22  C   UNL     1     -28.319   9.604 -10.790  0.00  0.00    +0.000 C 
ATOM     23  O   UNL     1     -29.544   9.800  -9.918  0.00  0.00    +0.000 OA
ATOM     24  C   UNL     1     -29.253   8.805 -11.997  0.00  0.00    +0.000 C 
ATOM     25  O   UNL     1     -28.102   8.118 -12.718  0.00  0.00    +0.000 OA
ATOM     26  C   UNL     1     -29.908   7.454 -11.146  0.00  0.00    +0.000 C 
ATOM     27  O   UNL     1     -29.677   6.536 -12.346  0.00  0.00    +0.000 OA
BRANCH  19  29
ATOM     28  O   UNL     1     -28.202   4.912 -10.386  0.00  0.00    +0.000 OA
ATOM     29  C   UNL     1     -28.580   5.303 -10.863  0.00  0.00    +0.000 C 
ENDBRANCH  19  29
ENDBRANCH  18  21
ENDBRANCH   1  18
TORSDOF 5
ENDMDL
MODEL 6
REMARK VINA RESULT:      -7.5     11.719     15.617
REMARK  Name = 
REMARK  5 active torsions:
REMARK  status: ('A' for Active; 'I' for Inactive)
REMARK    1  A    between atoms: C_2  and  C_3
REMARK    2  A    between atoms: C_5  and  O_6
REMARK    3  A    between atoms: O_6  and  C_7
REMARK    4  A    between atoms: C_12  and  C_13
REMARK    5  A    between atoms: C_14  and  C_15
REMARK                            x       y       z     vdW  Elec       q    Type
REMARK                         _______ _______ _______ _____ _____    ______ ____
ROOT
ATOM      1  C   UNL     1     -23.036   6.332  -1.647  0.00  0.00    +0.000 A 
ATOM      2  C   UNL     1     -22.163   7.089  -0.902  0.00  0.00    +0.000 A 
ATOM      3  C   UNL     1     -22.135   8.474  -0.929  0.00  0.00    +0.000 A 
ATOM      4  O   UNL     1     -21.830   9.255   0.168  0.00  0.00    +0.000 OA
ATOM      5  C   UNL     1     -22.979   9.040  -1.879  0.00  0.00    +0.000 A 
ATOM      6  C   UNL     1     -23.473   8.310  -2.949  0.00  0.00    +0.000 A 
ATOM      7  C   UNL     1     -23.602   6.956  -2.753  0.00  0.00    +0.000 A 
ENDROOT
BRANCH   6   8
ATOM      8  C   UNL     1     -23.701   8.927  -4.261  0.00  0.00    +0.000 C 
ATOM      9  C   UNL     1     -24.686   8.380  -4.942  0.00  0.00    +0.000 C 
BRANCH   9  10
ATOM     10  C   UNL     1     -25.156   8.817  -6.231  0.00  0.00    +0.000 A 
ATOM     11  C   UNL     1     -24.607   8.231  -7.331  0.00  0.00    +0.000 A 
ATOM     12  C   UNL     1     -25.249   8.376  -8.551  0.00  0.00    +0.000 A 
ATOM     13  C   UNL     1     -26.319   9.247  -8.618  0.00  0.00    +0.000 A 
ATOM     14  O   UNL     1     -27.031   9.278  -9.793  0.00  0.00    +0.000 OA
ATOM     15  C   UNL     1     -26.666  10.042  -7.531  0.00  0.00    +0.000 A 
ATOM     16  C   UNL     1     -26.175   9.735  -6.267  0.00  0.00    +0.000 A 
ATOM     17  O   UNL     1     -26.815  10.201  -5.123  0.00  0.00    +0.000 OA
ENDBRANCH   9  10
ENDBRANCH   6   8
BRANCH   1  18
ATOM     18  O   UNL     1     -23.534   5.094  -1.210  0.00  0.00    +0.000 OA
BRANCH  18  21
ATOM     19  C   UNL     1     -25.773   5.685   0.720  0.00  0.00    +0.000 C 
ATOM     20  O   UNL     1     -24.845   4.497   0.506  0.00  0.00    +0.000 OA
ATOM     21  C   UNL     1     -25.000   5.424  -0.734  0.00  0.00    +0.000 C 
ATOM     22  C   UNL     1     -25.730   4.202  -1.713  0.00  0.00    +0.000 C 
ATOM     23  O   UNL     1     -26.778   5.185  -2.198  0.00  0.00    +0.000 OA
ATOM     24  C   UNL     1     -26.836   3.513  -0.586  0.00  0.00    +0.000 C 
ATOM     25  O   UNL     1     -25.810   2.839   0.315  0.00  0.00    +0.000 OA
ATOM     26  C   UNL     1     -27.258   4.857   0.412  0.00  0.00    +0.000 C 
ATOM     27  O   UNL     1     -27.214   3.988   1.668  0.00  0.00    +0.000 OA
BRANCH  19  29
ATOM     28  O   UNL     1     -25.220   5.915   2.597  0.00  0.00    +0.000 OA
ATOM     29  C   UNL     1     -25.803   5.545   2.382  0.00  0.00    +0.000 C 
ENDBRANCH  19  29
ENDBRANCH  18  21
ENDBRANCH   1  18
TORSDOF 5
ENDMDL
MODEL 7
REMARK VINA RESULT:      -7.4     15.137     16.535
REMARK  Name = 
REMARK  5 active torsions:
REMARK  status: ('A' for Active; 'I' for Inactive)
REMARK    1  A    between atoms: C_2  and  C_3
REMARK    2  A    between atoms: C_5  and  O_6
REMARK    3  A    between atoms: O_6  and  C_7
REMARK    4  A    between atoms: C_12  and  C_13
REMARK    5  A    between atoms: C_14  and  C_15
REMARK                            x       y       z     vdW  Elec       q    Type
REMARK                         _______ _______ _______ _____ _____    ______ ____
ROOT
ATOM      1  C   UNL     1     -26.651   8.370  -8.770  0.00  0.00    +0.000 A 
ATOM      2  C   UNL     1     -27.079   9.628  -8.417  0.00  0.00    +0.000 A 
ATOM      3  C   UNL     1     -26.390  10.454  -7.544  0.00  0.00    +0.000 A 
ATOM      4  O   UNL     1     -26.355  11.830  -7.657  0.00  0.00    +0.000 OA
ATOM      5  C   UNL     1     -25.289   9.852  -6.942  0.00  0.00    +0.000 A 
ATOM      6  C   UNL     1     -25.139   8.475  -6.897  0.00  0.00    +0.000 A 
ATOM      7  C   UNL     1     -25.742   7.765  -7.909  0.00  0.00    +0.000 A 
ENDROOT
BRANCH   6   8
ATOM      8  C   UNL     1     -24.503   7.807  -5.756  0.00  0.00    +0.000 C 
ATOM      9  C   UNL     1     -24.371   8.575  -4.696  0.00  0.00    +0.000 C 
BRANCH   9  10
ATOM     10  C   UNL     1     -23.829   8.165  -3.426  0.00  0.00    +0.000 A 
ATOM     11  C   UNL     1     -24.115   6.903  -3.001  0.00  0.00    +0.000 A 
ATOM     12  C   UNL     1     -23.360   6.363  -1.971  0.00  0.00    +0.000 A 
ATOM     13  C   UNL     1     -22.470   7.192  -1.319  0.00  0.00    +0.000 A 
ATOM     14  O   UNL     1     -21.632   6.614  -0.397  0.00  0.00    +0.000 OA
ATOM     15  C   UNL     1     -22.418   8.553  -1.602  0.00  0.00    +0.000 A 
ATOM     16  C   UNL     1     -23.002   9.037  -2.768  0.00  0.00    +0.000 A 
ATOM     17  O   UNL     1     -22.610  10.261  -3.303  0.00  0.00    +0.000 OA
ENDBRANCH   9  10
ENDBRANCH   6   8
BRANCH   1  18
ATOM     18  O   UNL     1     -26.901   7.807 -10.031  0.00  0.00    +0.000 OA
BRANCH  18  21
ATOM     19  C   UNL     1     -29.878   8.166  -9.727  0.00  0.00    +0.000 C 
ATOM     20  O   UNL     1     -28.971   6.957  -9.911  0.00  0.00    +0.000 OA
ATOM     21  C   UNL     1     -28.353   8.304 -10.387  0.00  0.00    +0.000 C 
ATOM     22  C   UNL     1     -28.253   7.818 -12.042  0.00  0.00    +0.000 C 
ATOM     23  O   UNL     1     -28.806   9.156 -12.492  0.00  0.00    +0.000 OA
ATOM     24  C   UNL     1     -29.790   7.066 -12.244  0.00  0.00    +0.000 C 
ATOM     25  O   UNL     1     -29.529   5.841 -11.380  0.00  0.00    +0.000 OA
ATOM     26  C   UNL     1     -30.802   7.964 -11.173  0.00  0.00    +0.000 C 
ATOM     27  O   UNL     1     -31.519   6.692 -10.721  0.00  0.00    +0.000 OA
BRANCH  19  29
ATOM     28  O   UNL     1     -30.753   7.638  -8.042  0.00  0.00    +0.000 OA
ATOM     29  C   UNL     1     -30.939   7.393  -8.697  0.00  0.00    +0.000 C 
ENDBRANCH  19  29
ENDBRANCH  18  21
ENDBRANCH   1  18
TORSDOF 5
ENDMDL
MODEL 8
REMARK VINA RESULT:      -7.0     15.788     17.166
REMARK  Name = 
REMARK  5 active torsions:
REMARK  status: ('A' for Active; 'I' for Inactive)
REMARK    1  A    between atoms: C_2  and  C_3
REMARK    2  A    between atoms: C_5  and  O_6
REMARK    3  A    between atoms: O_6  and  C_7
REMARK    4  A    between atoms: C_12  and  C_13
REMARK    5  A    between atoms: C_14  and  C_15
REMARK                            x       y       z     vdW  Elec       q    Type
REMARK                         _______ _______ _______ _____ _____    ______ ____
ROOT
ATOM      1  C   UNL     1     -27.811   8.637  -8.671  0.00  0.00    +0.000 A 
ATOM      2  C   UNL     1     -27.071   8.496  -9.821  0.00  0.00    +0.000 A 
ATOM      3  C   UNL     1     -25.720   8.193  -9.830  0.00  0.00    +0.000 A 
ATOM      4  O   UNL     1     -25.114   7.423 -10.803  0.00  0.00    +0.000 OA
ATOM      5  C   UNL     1     -25.134   8.172  -8.567  0.00  0.00    +0.000 A 
ATOM      6  C   UNL     1     -25.725   8.786  -7.474  0.00  0.00    +0.000 A 
ATOM      7  C   UNL     1     -27.096   8.895  -7.507  0.00  0.00    +0.000 A 
ENDROOT
BRANCH   6   8
ATOM      8  C   UNL     1     -24.924   9.416  -6.419  0.00  0.00    +0.000 C 
ATOM      9  C   UNL     1     -24.551   8.586  -5.467  0.00  0.00    +0.000 C 
BRANCH   9  10
ATOM     10  C   UNL     1     -23.720   8.923  -4.340  0.00  0.00    +0.000 A 
ATOM     11  C   UNL     1     -23.048  10.106  -4.389  0.00  0.00    +0.000 A 
ATOM     12  C   UNL     1     -22.513  10.614  -3.215  0.00  0.00    +0.000 A 
ATOM     13  C   UNL     1     -22.544   9.813  -2.091  0.00  0.00    +0.000 A 
ATOM     14  O   UNL     1     -22.139  10.376  -0.905  0.00  0.00    +0.000 OA
ATOM     15  C   UNL     1     -22.986   8.496  -2.161  0.00  0.00    +0.000 A 
ATOM     16  C   UNL     1     -23.718   8.072  -3.265  0.00  0.00    +0.000 A 
ATOM     17  O   UNL     1     -24.533   6.947  -3.188  0.00  0.00    +0.000 OA
ENDBRANCH   9  10
ENDBRANCH   6   8
BRANCH   1  18
ATOM     18  O   UNL     1     -29.172   8.303  -8.595  0.00  0.00    +0.000 OA
BRANCH  18  21
ATOM     19  C   UNL     1     -30.180   9.461 -11.189  0.00  0.00    +0.000 C 
ATOM     20  O   UNL     1     -30.743   9.379  -9.776  0.00  0.00    +0.000 OA
ATOM     21  C   UNL     1     -29.650   8.319 -10.096  0.00  0.00    +0.000 C 
ATOM     22  C   UNL     1     -30.718   6.975  -9.905  0.00  0.00    +0.000 C 
ATOM     23  O   UNL     1     -30.177   6.335 -11.169  0.00  0.00    +0.000 OA
ATOM     24  C   UNL     1     -32.108   7.554 -10.743  0.00  0.00    +0.000 C 
ATOM     25  O   UNL     1     -32.516   8.623  -9.738  0.00  0.00    +0.000 OA
ATOM     26  C   UNL     1     -31.427   8.557 -11.971  0.00  0.00    +0.000 C 
ATOM     27  O   UNL     1     -32.523   9.605 -11.777  0.00  0.00    +0.000 OA
BRANCH  19  29
ATOM     28  O   UNL     1     -30.239  11.420 -11.393  0.00  0.00    +0.000 OA
ATOM     29  C   UNL     1     -30.801  10.978 -11.501  0.00  0.00    +0.000 C 
ENDBRANCH  19  29
ENDBRANCH  18  21
ENDBRANCH   1  18
TORSDOF 5
ENDMDL
MODEL 9
REMARK VINA RESULT:      -6.9     15.820     17.385
REMARK  Name = 
REMARK  5 active torsions:
REMARK  status: ('A' for Active; 'I' for Inactive)
REMARK    1  A    between atoms: C_2  and  C_3
REMARK    2  A    between atoms: C_5  and  O_6
REMARK    3  A    between atoms: O_6  and  C_7
REMARK    4  A    between atoms: C_12  and  C_13
REMARK    5  A    between atoms: C_14  and  C_15
REMARK                            x       y       z     vdW  Elec       q    Type
REMARK                         _______ _______ _______ _____ _____    ______ ____
ROOT
ATOM      1  C   UNL     1     -27.953   9.534  -8.888  0.00  0.00    +0.000 A 
ATOM      2  C   UNL     1     -26.962   9.249  -9.797  0.00  0.00    +0.000 A 
ATOM      3  C   UNL     1     -25.784   8.600  -9.467  0.00  0.00    +0.000 A 
ATOM      4  O   UNL     1     -25.121   7.735 -10.316  0.00  0.00    +0.000 OA
ATOM      5  C   UNL     1     -25.622   8.375  -8.103  0.00  0.00    +0.000 A 
ATOM      6  C   UNL     1     -26.344   9.081  -7.153  0.00  0.00    +0.000 A 
ATOM      7  C   UNL     1     -27.575   9.549  -7.550  0.00  0.00    +0.000 A 
ENDROOT
BRANCH   6   8
ATOM      8  C   UNL     1     -25.765   9.434  -5.852  0.00  0.00    +0.000 C 
ATOM      9  C   UNL     1     -24.545   8.975  -5.670  0.00  0.00    +0.000 C 
BRANCH   9  10
ATOM     10  C   UNL     1     -23.724   9.213  -4.511  0.00  0.00    +0.000 A 
ATOM     11  C   UNL     1     -23.035  10.386  -4.461  0.00  0.00    +0.000 A 
ATOM     12  C   UNL     1     -22.509  10.796  -3.246  0.00  0.00    +0.000 A 
ATOM     13  C   UNL     1     -22.567   9.913  -2.186  0.00  0.00    +0.000 A 
ATOM     14  O   UNL     1     -22.170  10.380  -0.956  0.00  0.00    +0.000 OA
ATOM     15  C   UNL     1     -23.028   8.612  -2.360  0.00  0.00    +0.000 A 
ATOM     16  C   UNL     1     -23.751   8.284  -3.503  0.00  0.00    +0.000 A 
ATOM     17  O   UNL     1     -24.583   7.169  -3.520  0.00  0.00    +0.000 OA
ENDBRANCH   9  10
ENDBRANCH   6   8
BRANCH   1  18
ATOM     18  O   UNL     1     -29.314   9.569  -9.230  0.00  0.00    +0.000 OA
BRANCH  18  21
ATOM     19  C   UNL     1     -29.736   6.673  -9.952  0.00  0.00    +0.000 C 
ATOM     20  O   UNL     1     -30.205   7.993 -10.550  0.00  0.00    +0.000 OA
ATOM     21  C   UNL     1     -29.786   8.077  -9.054  0.00  0.00    +0.000 C 
ATOM     22  C   UNL     1     -31.367   8.507  -8.505  0.00  0.00    +0.000 C 
ATOM     23  O   UNL     1     -31.264   7.519  -7.360  0.00  0.00    +0.000 OA
ATOM     24  C   UNL     1     -32.330   7.410  -9.421  0.00  0.00    +0.000 C 
ATOM     25  O   UNL     1     -32.117   8.049 -10.787  0.00  0.00    +0.000 OA
ATOM     26  C   UNL     1     -31.299   6.036  -9.583  0.00  0.00    +0.000 C 
ATOM     27  O   UNL     1     -31.730   5.834 -11.036  0.00  0.00    +0.000 OA
BRANCH  19  29
ATOM     28  O   UNL     1     -28.836   5.957 -11.552  0.00  0.00    +0.000 OA
ATOM     29  C   UNL     1     -29.547   5.910 -11.423  0.00  0.00    +0.000 C 
ENDBRANCH  19  29
ENDBRANCH  18  21
ENDBRANCH   1  18
TORSDOF 5
ENDMDL
MODEL 10
REMARK VINA RESULT:      -6.9      1.800      2.833
REMARK  Name = 
REMARK  5 active torsions:
REMARK  status: ('A' for Active; 'I' for Inactive)
REMARK    1  A    between atoms: C_2  and  C_3
REMARK    2  A    between atoms: C_5  and  O_6
REMARK    3  A    between atoms: O_6  and  C_7
REMARK    4  A    between atoms: C_12  and  C_13
REMARK    5  A    between atoms: C_14  and  C_15
REMARK                            x       y       z     vdW  Elec       q    Type
REMARK                         _______ _______ _______ _____ _____    ______ ____
ROOT
ATOM      1  C   UNL     1     -15.673  17.268  -0.333  0.00  0.00    +0.000 A 
ATOM      2  C   UNL     1     -15.362  18.374   0.422  0.00  0.00    +0.000 A 
ATOM      3  C   UNL     1     -14.307  18.417   1.319  0.00  0.00    +0.000 A 
ATOM      4  O   UNL     1     -13.559  19.551   1.569  0.00  0.00    +0.000 OA
ATOM      5  C   UNL     1     -13.661  17.197   1.494  0.00  0.00    +0.000 A 
ATOM      6  C   UNL     1     -14.255  15.995   1.141  0.00  0.00    +0.000 A 
ATOM      7  C   UNL     1     -15.183  16.051   0.127  0.00  0.00    +0.000 A 
ENDROOT
BRANCH   6   8
ATOM      8  C   UNL     1     -14.018  14.765   1.905  0.00  0.00    +0.000 C 
ATOM      9  C   UNL     1     -14.547  13.690   1.360  0.00  0.00    +0.000 C 
BRANCH   9  10
ATOM     10  C   UNL     1     -14.427  12.348   1.869  0.00  0.00    +0.000 A 
ATOM     11  C   UNL     1     -13.170  11.855   2.047  0.00  0.00    +0.000 A 
ATOM     12  C   UNL     1     -13.006  10.722   2.827  0.00  0.00    +0.000 A 
ATOM     13  C   UNL     1     -14.140  10.055   3.246  0.00  0.00    +0.000 A 
ATOM     14  O   UNL     1     -13.970   9.017   4.130  0.00  0.00    +0.000 OA
ATOM     15  C   UNL     1     -15.402  10.436   2.799  0.00  0.00    +0.000 A 
ATOM     16  C   UNL     1     -15.577  11.684   2.212  0.00  0.00    +0.000 A 
ATOM     17  O   UNL     1     -16.836  12.274   2.159  0.00  0.00    +0.000 OA
ENDBRANCH   9  10
ENDBRANCH   6   8
BRANCH   1  18
ATOM     18  O   UNL     1     -16.235  17.356  -1.616  0.00  0.00    +0.000 OA
BRANCH  18  21
ATOM     19  C   UNL     1     -15.564  19.927  -3.040  0.00  0.00    +0.000 C 
ATOM     20  O   UNL     1     -16.486  18.754  -3.349  0.00  0.00    +0.000 OA
ATOM     21  C   UNL     1     -15.340  18.426  -2.348  0.00  0.00    +0.000 C 
ATOM     22  C   UNL     1     -14.588  17.273  -3.392  0.00  0.00    +0.000 C 
ATOM     23  O   UNL     1     -13.222  17.858  -3.092  0.00  0.00    +0.000 OA
ATOM     24  C   UNL     1     -14.663  18.111  -4.896  0.00  0.00    +0.000 C 
ATOM     25  O   UNL     1     -16.169  18.018  -5.102  0.00  0.00    +0.000 OA
ATOM     26  C   UNL     1     -14.540  19.766  -4.421  0.00  0.00    +0.000 C 
ATOM     27  O   UNL     1     -15.596  20.179  -5.446  0.00  0.00    +0.000 OA
BRANCH  19  29
ATOM     28  O   UNL     1     -16.996  21.278  -3.115  0.00  0.00    +0.000 OA
ATOM     29  C   UNL     1     -16.586  21.082  -3.677  0.00  0.00    +0.000 C 
ENDBRANCH  19  29
ENDBRANCH  18  21
ENDBRANCH   1  18
TORSDOF 5
ENDMDL
