MODEL 1
REMARK VINA RESULT:      -8.0      0.000      0.000
REMARK  Name = 
REMARK  5 active torsions:
REMARK  status: ('A' for Active; 'I' for Inactive)
REMARK    1  A    between atoms: C_2  and  C_3
REMARK    2  A    between atoms: C_5  and  O_6
REMARK    3  A    between atoms: O_6  and  C_7
REMARK    4  A    between atoms: C_12  and  C_13
REMARK    5  A    between atoms: C_14  and  C_15
REMARK                            x       y       z     vdW  Elec       q    Type
REMARK                         _______ _______ _______ _____ _____    ______ ____
ROOT
ATOM      1  C   UNL     1     -22.137  -2.462   7.670  0.00  0.00    +0.000 A 
ATOM      2  C   UNL     1     -22.366  -3.339   8.707  0.00  0.00    +0.000 A 
ATOM      3  C   UNL     1     -21.466  -3.518   9.753  0.00  0.00    +0.000 A 
ATOM      4  O   UNL     1     -21.956  -3.686  11.051  0.00  0.00    +0.000 OA
ATOM      5  C   UNL     1     -20.263  -2.851   9.635  0.00  0.00    +0.000 A 
ATOM      6  C   UNL     1     -19.964  -2.001   8.585  0.00  0.00    +0.000 A 
ATOM      7  C   UNL     1     -20.852  -1.998   7.515  0.00  0.00    +0.000 A 
ENDROOT
BRANCH   6   8
ATOM      8  C   UNL     1     -18.549  -1.883   8.204  0.00  0.00    +0.000 C 
ATOM      9  C   UNL     1     -18.139  -1.799   6.962  0.00  0.00    +0.000 C 
BRANCH   9  10
ATOM     10  C   UNL     1     -17.203  -0.791   6.471  0.00  0.00    +0.000 A 
ATOM     11  C   UNL     1     -15.900  -1.071   6.119  0.00  0.00    +0.000 A 
ATOM     12  C   UNL     1     -14.908  -0.173   6.499  0.00  0.00    +0.000 A 
ATOM     13  C   UNL     1     -15.241   1.133   6.826  0.00  0.00    +0.000 A 
ATOM     14  O   UNL     1     -14.368   1.957   7.513  0.00  0.00    +0.000 OA
ATOM     15  C   UNL     1     -16.573   1.491   6.647  0.00  0.00    +0.000 A 
ATOM     16  C   UNL     1     -17.571   0.537   6.522  0.00  0.00    +0.000 A 
ATOM     17  O   UNL     1     -18.894   0.867   6.251  0.00  0.00    +0.000 OA
ENDBRANCH   9  10
ENDBRANCH   6   8
BRANCH   1  18
ATOM     18  O   UNL     1     -23.130  -1.918   6.875  0.00  0.00    +0.000 OA
BRANCH  18  21
ATOM     19  C   UNL     1     -25.792  -4.077   7.313  0.00  0.00    +0.000 C 
ATOM     20  O   UNL     1     -24.903  -3.227   6.384  0.00  0.00    +0.000 OA
ATOM     21  C   UNL     1     -24.511  -2.286   7.561  0.00  0.00    +0.000 C 
ATOM     22  C   UNL     1     -25.308  -0.871   6.868  0.00  0.00    +0.000 C 
ATOM     23  O   UNL     1     -24.821  -1.100   5.461  0.00  0.00    +0.000 OA
ATOM     24  C   UNL     1     -26.856  -1.666   6.685  0.00  0.00    +0.000 C 
ATOM     25  O   UNL     1     -26.458  -2.556   5.535  0.00  0.00    +0.000 OA
ATOM     26  C   UNL     1     -26.575  -2.699   8.055  0.00  0.00    +0.000 C 
ATOM     27  O   UNL     1     -27.979  -3.272   7.958  0.00  0.00    +0.000 OA
BRANCH  19  29
ATOM     28  O   UNL     1     -26.986  -4.949   6.079  0.00  0.00    +0.000 OA
ATOM     29  C   UNL     1     -27.026  -4.439   6.239  0.00  0.00    +0.000 C 
ENDBRANCH  19  29
ENDBRANCH  18  21
ENDBRANCH   1  18
TORSDOF 5
ENDMDL
MODEL 2
REMARK VINA RESULT:      -7.8      1.618      2.232
REMARK  Name = 
REMARK  5 active torsions:
REMARK  status: ('A' for Active; 'I' for Inactive)
REMARK    1  A    between atoms: C_2  and  C_3
REMARK    2  A    between atoms: C_5  and  O_6
REMARK    3  A    between atoms: O_6  and  C_7
REMARK    4  A    between atoms: C_12  and  C_13
REMARK    5  A    between atoms: C_14  and  C_15
REMARK                            x       y       z     vdW  Elec       q    Type
REMARK                         _______ _______ _______ _____ _____    ______ ____
ROOT
ATOM      1  C   UNL     1     -23.486  -3.033   7.480  0.00  0.00    +0.000 A 
ATOM      2  C   UNL     1     -24.044  -4.020   8.264  0.00  0.00    +0.000 A 
ATOM      3  C   UNL     1     -23.472  -4.441   9.460  0.00  0.00    +0.000 A 
ATOM      4  O   UNL     1     -24.304  -4.739  10.544  0.00  0.00    +0.000 OA
ATOM      5  C   UNL     1     -22.241  -3.896   9.767  0.00  0.00    +0.000 A 
ATOM      6  C   UNL     1     -21.616  -2.943   8.984  0.00  0.00    +0.000 A 
ATOM      7  C   UNL     1     -22.180  -2.692   7.738  0.00  0.00    +0.000 A 
ENDROOT
BRANCH   6   8
ATOM      8  C   UNL     1     -20.146  -2.923   9.003  0.00  0.00    +0.000 C 
ATOM      9  C   UNL     1     -19.410  -2.844   7.921  0.00  0.00    +0.000 C 
BRANCH   9  10
ATOM     10  C   UNL     1     -18.310  -1.900   7.742  0.00  0.00    +0.000 A 
ATOM     11  C   UNL     1     -18.244  -0.678   8.378  0.00  0.00    +0.000 A 
ATOM     12  C   UNL     1     -17.812   0.422   7.647  0.00  0.00    +0.000 A 
ATOM     13  C   UNL     1     -17.076   0.239   6.485  0.00  0.00    +0.000 A 
ATOM     14  O   UNL     1     -16.907   1.256   5.562  0.00  0.00    +0.000 OA
ATOM     15  C   UNL     1     -16.727  -1.071   6.178  0.00  0.00    +0.000 A 
ATOM     16  C   UNL     1     -17.373  -2.151   6.761  0.00  0.00    +0.000 A 
ATOM     17  O   UNL     1     -16.983  -3.466   6.541  0.00  0.00    +0.000 OA
ENDBRANCH   9  10
ENDBRANCH   6   8
BRANCH   1  18
ATOM     18  O   UNL     1     -24.191  -2.279   6.559  0.00  0.00    +0.000 OA
BRANCH  18  21
ATOM     19  C   UNL     1     -27.004  -4.176   5.908  0.00  0.00    +0.000 C 
ATOM     20  O   UNL     1     -25.845  -3.293   5.405  0.00  0.00    +0.000 OA
ATOM     21  C   UNL     1     -25.727  -2.597   6.793  0.00  0.00    +0.000 C 
ATOM     22  C   UNL     1     -26.215  -1.012   6.187  0.00  0.00    +0.000 C 
ATOM     23  O   UNL     1     -25.382  -1.068   4.933  0.00  0.00    +0.000 OA
ATOM     24  C   UNL     1     -27.704  -1.594   5.476  0.00  0.00    +0.000 C 
ATOM     25  O   UNL     1     -27.068  -2.331   4.323  0.00  0.00    +0.000 OA
ATOM     26  C   UNL     1     -27.869  -2.854   6.663  0.00  0.00    +0.000 C 
ATOM     27  O   UNL     1     -29.228  -3.248   6.109  0.00  0.00    +0.000 OA
BRANCH  19  29
ATOM     28  O   UNL     1     -27.881  -4.710   4.279  0.00  0.00    +0.000 OA
ATOM     29  C   UNL     1     -27.923  -4.228   4.508  0.00  0.00    +0.000 C 
ENDBRANCH  19  29
ENDBRANCH  18  21
ENDBRANCH   1  18
TORSDOF 5
ENDMDL
MODEL 3
REMARK VINA RESULT:      -7.7     16.359     22.384
REMARK  Name = 
REMARK  5 active torsions:
REMARK  status: ('A' for Active; 'I' for Inactive)
REMARK    1  A    between atoms: C_2  and  C_3
REMARK    2  A    between atoms: C_5  and  O_6
REMARK    3  A    between atoms: O_6  and  C_7
REMARK    4  A    between atoms: C_12  and  C_13
REMARK    5  A    between atoms: C_14  and  C_15
REMARK                            x       y       z     vdW  Elec       q    Type
REMARK                         _______ _______ _______ _____ _____    ______ ____
ROOT
ATOM      1  C   UNL     1     -13.224  17.908   0.625  0.00  0.00    +0.000 A 
ATOM      2  C   UNL     1     -14.334  17.655  -0.150  0.00  0.00    +0.000 A 
ATOM      3  C   UNL     1     -15.129  16.527   0.021  0.00  0.00    +0.000 A 
ATOM      4  O   UNL     1     -16.517  16.646  -0.104  0.00  0.00    +0.000 OA
ATOM      5  C   UNL     1     -14.675  15.601   0.940  0.00  0.00    +0.000 A 
ATOM      6  C   UNL     1     -13.537  15.785   1.704  0.00  0.00    +0.000 A 
ATOM      7  C   UNL     1     -12.726  16.861   1.364  0.00  0.00    +0.000 A 
ENDROOT
BRANCH   6   8
ATOM      8  C   UNL     1     -12.807  14.576   2.115  0.00  0.00    +0.000 C 
ATOM      9  C   UNL     1     -13.273  13.708   2.980  0.00  0.00    +0.000 C 
BRANCH   9  10
ATOM     10  C   UNL     1     -13.305  12.265   2.761  0.00  0.00    +0.000 A 
ATOM     11  C   UNL     1     -14.300  11.624   2.054  0.00  0.00    +0.000 A 
ATOM     12  C   UNL     1     -14.788  10.420   2.548  0.00  0.00    +0.000 A 
ATOM     13  C   UNL     1     -14.035   9.682   3.449  0.00  0.00    +0.000 A 
ATOM     14  O   UNL     1     -14.593   8.671   4.210  0.00  0.00    +0.000 OA
ATOM     15  C   UNL     1     -12.760  10.165   3.725  0.00  0.00    +0.000 A 
ATOM     16  C   UNL     1     -12.400  11.472   3.434  0.00  0.00    +0.000 A 
ATOM     17  O   UNL     1     -11.108  11.952   3.616  0.00  0.00    +0.000 OA
ENDBRANCH   9  10
ENDBRANCH   6   8
BRANCH   1  18
ATOM     18  O   UNL     1     -12.674  19.163   0.813  0.00  0.00    +0.000 OA
BRANCH  18  21
ATOM     19  C   UNL     1     -11.176  19.248   3.925  0.00  0.00    +0.000 C 
ATOM     20  O   UNL     1     -11.963  19.954   2.804  0.00  0.00    +0.000 OA
ATOM     21  C   UNL     1     -11.402  18.967   1.739  0.00  0.00    +0.000 C 
ATOM     22  C   UNL     1     -10.497  20.211   0.872  0.00  0.00    +0.000 C 
ATOM     23  O   UNL     1     -11.589  21.247   0.914  0.00  0.00    +0.000 OA
ATOM     24  C   UNL     1      -9.633  20.760   2.291  0.00  0.00    +0.000 C 
ATOM     25  O   UNL     1     -10.803  21.445   2.951  0.00  0.00    +0.000 OA
ATOM     26  C   UNL     1      -9.677  19.184   3.024  0.00  0.00    +0.000 C 
ATOM     27  O   UNL     1      -8.806  19.655   4.176  0.00  0.00    +0.000 OA
BRANCH  19  29
ATOM     28  O   UNL     1     -11.098  20.608   5.286  0.00  0.00    +0.000 OA
ATOM     29  C   UNL     1     -10.781  20.585   4.854  0.00  0.00    +0.000 C 
ENDBRANCH  19  29
ENDBRANCH  18  21
ENDBRANCH   1  18
TORSDOF 5
ENDMDL
MODEL 4
REMARK VINA RESULT:      -7.6     16.459     21.949
REMARK  Name = 
REMARK  5 active torsions:
REMARK  status: ('A' for Active; 'I' for Inactive)
REMARK    1  A    between atoms: C_2  and  C_3
REMARK    2  A    between atoms: C_5  and  O_6
REMARK    3  A    between atoms: O_6  and  C_7
REMARK    4  A    between atoms: C_12  and  C_13
REMARK    5  A    between atoms: C_14  and  C_15
REMARK                            x       y       z     vdW  Elec       q    Type
REMARK                         _______ _______ _______ _____ _____    ______ ____
ROOT
ATOM      1  C   UNL     1     -12.957  17.623   1.198  0.00  0.00    +0.000 A 
ATOM      2  C   UNL     1     -13.968  17.478   0.273  0.00  0.00    +0.000 A 
ATOM      3  C   UNL     1     -14.788  16.355   0.227  0.00  0.00    +0.000 A 
ATOM      4  O   UNL     1     -16.149  16.517  -0.048  0.00  0.00    +0.000 OA
ATOM      5  C   UNL     1     -14.456  15.329   1.089  0.00  0.00    +0.000 A 
ATOM      6  C   UNL     1     -13.416  15.406   1.998  0.00  0.00    +0.000 A 
ATOM      7  C   UNL     1     -12.560  16.494   1.873  0.00  0.00    +0.000 A 
ENDROOT
BRANCH   6   8
ATOM      8  C   UNL     1     -12.751  14.145   2.359  0.00  0.00    +0.000 C 
ATOM      9  C   UNL     1     -13.254  13.279   3.206  0.00  0.00    +0.000 C 
BRANCH   9  10
ATOM     10  C   UNL     1     -13.373  11.848   2.945  0.00  0.00    +0.000 A 
ATOM     11  C   UNL     1     -14.424  11.285   2.252  0.00  0.00    +0.000 A 
ATOM     12  C   UNL     1     -14.963  10.094   2.726  0.00  0.00    +0.000 A 
ATOM     13  C   UNL     1     -14.223   9.288   3.579  0.00  0.00    +0.000 A 
ATOM     14  O   UNL     1     -14.814   8.285   4.327  0.00  0.00    +0.000 OA
ATOM     15  C   UNL     1     -12.916   9.691   3.827  0.00  0.00    +0.000 A 
ATOM     16  C   UNL     1     -12.492  10.985   3.565  0.00  0.00    +0.000 A 
ATOM     17  O   UNL     1     -11.171  11.387   3.718  0.00  0.00    +0.000 OA
ENDBRANCH   9  10
ENDBRANCH   6   8
BRANCH   1  18
ATOM     18  O   UNL     1     -12.422  18.840   1.582  0.00  0.00    +0.000 OA
BRANCH  18  21
ATOM     19  C   UNL     1     -15.048  21.026   2.094  0.00  0.00    +0.000 C 
ATOM     20  O   UNL     1     -13.610  20.759   1.608  0.00  0.00    +0.000 OA
ATOM     21  C   UNL     1     -13.486  19.519   2.542  0.00  0.00    +0.000 C 
ATOM     22  C   UNL     1     -12.221  20.237   3.544  0.00  0.00    +0.000 C 
ATOM     23  O   UNL     1     -11.429  20.809   2.398  0.00  0.00    +0.000 OA
ATOM     24  C   UNL     1     -13.141  21.682   3.904  0.00  0.00    +0.000 C 
ATOM     25  O   UNL     1     -13.026  22.305   2.535  0.00  0.00    +0.000 OA
ATOM     26  C   UNL     1     -14.658  20.839   3.791  0.00  0.00    +0.000 C 
ATOM     27  O   UNL     1     -15.419  22.073   4.242  0.00  0.00    +0.000 OA
BRANCH  19  29
ATOM     28  O   UNL     1     -15.238  22.883   1.623  0.00  0.00    +0.000 OA
ATOM     29  C   UNL     1     -15.026  22.701   2.079  0.00  0.00    +0.000 C 
ENDBRANCH  19  29
ENDBRANCH  18  21
ENDBRANCH   1  18
TORSDOF 5
ENDMDL
MODEL 5
REMARK VINA RESULT:      -7.5     15.135     20.490
REMARK  Name = 
REMARK  5 active torsions:
REMARK  status: ('A' for Active; 'I' for Inactive)
REMARK    1  A    between atoms: C_2  and  C_3
REMARK    2  A    between atoms: C_5  and  O_6
REMARK    3  A    between atoms: O_6  and  C_7
REMARK    4  A    between atoms: C_12  and  C_13
REMARK    5  A    between atoms: C_14  and  C_15
REMARK                            x       y       z     vdW  Elec       q    Type
REMARK                         _______ _______ _______ _____ _____    ______ ____
ROOT
ATOM      1  C   UNL     1     -32.899  -3.601  -6.309  0.00  0.00    +0.000 A 
ATOM      2  C   UNL     1     -33.601  -2.500  -5.868  0.00  0.00    +0.000 A 
ATOM      3  C   UNL     1     -34.990  -2.471  -5.807  0.00  0.00    +0.000 A 
ATOM      4  O   UNL     1     -35.611  -1.840  -4.724  0.00  0.00    +0.000 OA
ATOM      5  C   UNL     1     -35.642  -3.571  -6.328  0.00  0.00    +0.000 A 
ATOM      6  C   UNL     1     -34.982  -4.677  -6.832  0.00  0.00    +0.000 A 
ATOM      7  C   UNL     1     -33.606  -4.560  -6.994  0.00  0.00    +0.000 A 
ENDROOT
BRANCH   6   8
ATOM      8  C   UNL     1     -35.660  -5.430  -7.897  0.00  0.00    +0.000 C 
ATOM      9  C   UNL     1     -36.956  -5.625  -7.933  0.00  0.00    +0.000 C 
BRANCH   9  10
ATOM     10  C   UNL     1     -37.792  -5.380  -9.106  0.00  0.00    +0.000 A 
ATOM     11  C   UNL     1     -37.941  -6.285 -10.136  0.00  0.00    +0.000 A 
ATOM     12  C   UNL     1     -37.940  -5.803 -11.440  0.00  0.00    +0.000 A 
ATOM     13  C   UNL     1     -38.212  -4.466 -11.687  0.00  0.00    +0.000 A 
ATOM     14  O   UNL     1     -37.907  -3.872 -12.899  0.00  0.00    +0.000 OA
ATOM     15  C   UNL     1     -38.578  -3.699 -10.586  0.00  0.00    +0.000 A 
ATOM     16  C   UNL     1     -38.325  -4.122  -9.290  0.00  0.00    +0.000 A 
ATOM     17  O   UNL     1     -38.761  -3.419  -8.173  0.00  0.00    +0.000 OA
ENDBRANCH   9  10
ENDBRANCH   6   8
BRANCH   1  18
ATOM     18  O   UNL     1     -31.579  -3.863  -5.989  0.00  0.00    +0.000 OA
BRANCH  18  21
ATOM     19  C   UNL     1     -32.234  -5.552  -3.048  0.00  0.00    +0.000 C 
ATOM     20  O   UNL     1     -31.538  -4.400  -3.797  0.00  0.00    +0.000 OA
ATOM     21  C   UNL     1     -31.577  -5.197  -5.134  0.00  0.00    +0.000 C 
ATOM     22  C   UNL     1     -29.821  -5.346  -5.249  0.00  0.00    +0.000 C 
ATOM     23  O   UNL     1     -29.524  -3.924  -4.848  0.00  0.00    +0.000 OA
ATOM     24  C   UNL     1     -29.642  -6.053  -3.658  0.00  0.00    +0.000 C 
ATOM     25  O   UNL     1     -29.929  -4.795  -2.877  0.00  0.00    +0.000 OA
ATOM     26  C   UNL     1     -31.211  -6.799  -3.728  0.00  0.00    +0.000 C 
ATOM     27  O   UNL     1     -30.972  -7.513  -2.409  0.00  0.00    +0.000 OA
BRANCH  19  29
ATOM     28  O   UNL     1     -31.765  -5.233  -1.207  0.00  0.00    +0.000 OA
ATOM     29  C   UNL     1     -31.436  -5.434  -1.580  0.00  0.00    +0.000 C 
ENDBRANCH  19  29
ENDBRANCH  18  21
ENDBRANCH   1  18
TORSDOF 5
ENDMDL
MODEL 6
REMARK VINA RESULT:      -7.4     15.700     18.340
REMARK  Name = 
REMARK  5 active torsions:
REMARK  status: ('A' for Active; 'I' for Inactive)
REMARK    1  A    between atoms: C_2  and  C_3
REMARK    2  A    between atoms: C_5  and  O_6
REMARK    3  A    between atoms: O_6  and  C_7
REMARK    4  A    between atoms: C_12  and  C_13
REMARK    5  A    between atoms: C_14  and  C_15
REMARK                            x       y       z     vdW  Elec       q    Type
REMARK                         _______ _______ _______ _____ _____    ______ ____
ROOT
ATOM      1  C   UNL     1     -24.023   8.130  -4.523  0.00  0.00    +0.000 A 
ATOM      2  C   UNL     1     -23.911   9.488  -4.318  0.00  0.00    +0.000 A 
ATOM      3  C   UNL     1     -24.493  10.425  -5.165  0.00  0.00    +0.000 A 
ATOM      4  O   UNL     1     -25.072  11.573  -4.616  0.00  0.00    +0.000 OA
ATOM      5  C   UNL     1     -25.094   9.922  -6.302  0.00  0.00    +0.000 A 
ATOM      6  C   UNL     1     -25.183   8.570  -6.579  0.00  0.00    +0.000 A 
ATOM      7  C   UNL     1     -24.449   7.717  -5.763  0.00  0.00    +0.000 A 
ENDROOT
BRANCH   6   8
ATOM      8  C   UNL     1     -25.215   8.180  -7.997  0.00  0.00    +0.000 C 
ATOM      9  C   UNL     1     -26.303   7.794  -8.616  0.00  0.00    +0.000 C 
BRANCH   9  10
ATOM     10  C   UNL     1     -26.749   8.322  -9.903  0.00  0.00    +0.000 A 
ATOM     11  C   UNL     1     -27.047   9.651 -10.118  0.00  0.00    +0.000 A 
ATOM     12  C   UNL     1     -28.167   9.959 -10.883  0.00  0.00    +0.000 A 
ATOM     13  C   UNL     1     -28.703   9.011 -11.742  0.00  0.00    +0.000 A 
ATOM     14  O   UNL     1     -29.977   9.142 -12.266  0.00  0.00    +0.000 OA
ATOM     15  C   UNL     1     -28.001   7.816 -11.855  0.00  0.00    +0.000 A 
ATOM     16  C   UNL     1     -27.059   7.435 -10.912  0.00  0.00    +0.000 A 
ATOM     17  O   UNL     1     -26.280   6.292 -11.050  0.00  0.00    +0.000 OA
ENDBRANCH   9  10
ENDBRANCH   6   8
BRANCH   1  18
ATOM     18  O   UNL     1     -23.870   7.178  -3.531  0.00  0.00    +0.000 OA
BRANCH  18  21
ATOM     19  C   UNL     1     -23.042   9.125  -0.800  0.00  0.00    +0.000 C 
ATOM     20  O   UNL     1     -22.782   7.891  -1.686  0.00  0.00    +0.000 OA
ATOM     21  C   UNL     1     -24.264   7.879  -2.165  0.00  0.00    +0.000 C 
ATOM     22  C   UNL     1     -24.635   6.330  -1.402  0.00  0.00    +0.000 C 
ATOM     23  O   UNL     1     -23.360   5.647  -1.820  0.00  0.00    +0.000 OA
ATOM     24  C   UNL     1     -24.094   6.831   0.185  0.00  0.00    +0.000 C 
ATOM     25  O   UNL     1     -22.618   6.826  -0.127  0.00  0.00    +0.000 OA
ATOM     26  C   UNL     1     -24.519   8.491  -0.107  0.00  0.00    +0.000 C 
ATOM     27  O   UNL     1     -24.172   8.870   1.322  0.00  0.00    +0.000 OA
BRANCH  19  29
ATOM     28  O   UNL     1     -21.615   9.055   0.491  0.00  0.00    +0.000 OA
ATOM     29  C   UNL     1     -22.047   8.738   0.491  0.00  0.00    +0.000 C 
ENDBRANCH  19  29
ENDBRANCH  18  21
ENDBRANCH   1  18
TORSDOF 5
ENDMDL
MODEL 7
REMARK VINA RESULT:      -7.4     29.809     32.398
REMARK  Name = 
REMARK  5 active torsions:
REMARK  status: ('A' for Active; 'I' for Inactive)
REMARK    1  A    between atoms: C_2  and  C_3
REMARK    2  A    between atoms: C_5  and  O_6
REMARK    3  A    between atoms: O_6  and  C_7
REMARK    4  A    between atoms: C_12  and  C_13
REMARK    5  A    between atoms: C_14  and  C_15
REMARK                            x       y       z     vdW  Elec       q    Type
REMARK                         _______ _______ _______ _____ _____    ______ ____
ROOT
ATOM      1  C   UNL     1     -17.824  18.613 -17.053  0.00  0.00    +0.000 A 
ATOM      2  C   UNL     1     -17.909  19.684 -16.190  0.00  0.00    +0.000 A 
ATOM      3  C   UNL     1     -16.952  20.692 -16.148  0.00  0.00    +0.000 A 
ATOM      4  O   UNL     1     -17.365  22.016 -15.968  0.00  0.00    +0.000 OA
ATOM      5  C   UNL     1     -15.838  20.502 -16.941  0.00  0.00    +0.000 A 
ATOM      6  C   UNL     1     -15.681  19.416 -17.784  0.00  0.00    +0.000 A 
ATOM      7  C   UNL     1     -16.608  18.387 -17.652  0.00  0.00    +0.000 A 
ENDROOT
BRANCH   6   8
ATOM      8  C   UNL     1     -14.306  18.969 -18.047  0.00  0.00    +0.000 C 
ATOM      9  C   UNL     1     -14.016  17.854 -18.673  0.00  0.00    +0.000 C 
BRANCH   9  10
ATOM     10  C   UNL     1     -13.074  17.756 -19.785  0.00  0.00    +0.000 A 
ATOM     11  C   UNL     1     -11.786  18.246 -19.738  0.00  0.00    +0.000 A 
ATOM     12  C   UNL     1     -11.292  18.906 -20.857  0.00  0.00    +0.000 A 
ATOM     13  C   UNL     1     -11.881  18.710 -22.097  0.00  0.00    +0.000 A 
ATOM     14  O   UNL     1     -11.652  19.569 -23.157  0.00  0.00    +0.000 OA
ATOM     15  C   UNL     1     -12.894  17.758 -22.153  0.00  0.00    +0.000 A 
ATOM     16  C   UNL     1     -13.536  17.312 -21.007  0.00  0.00    +0.000 A 
ATOM     17  O   UNL     1     -14.486  16.298 -21.026  0.00  0.00    +0.000 OA
ENDBRANCH   9  10
ENDBRANCH   6   8
BRANCH   1  18
ATOM     18  O   UNL     1     -18.905  17.849 -17.454  0.00  0.00    +0.000 OA
BRANCH  18  21
ATOM     19  C   UNL     1     -20.248  15.522 -15.284  0.00  0.00    +0.000 C 
ATOM     20  O   UNL     1     -20.118  16.098 -16.706  0.00  0.00    +0.000 OA
ATOM     21  C   UNL     1     -19.722  17.495 -16.143  0.00  0.00    +0.000 C 
ATOM     22  C   UNL     1     -21.173  18.297 -16.751  0.00  0.00    +0.000 C 
ATOM     23  O   UNL     1     -21.155  17.635 -18.103  0.00  0.00    +0.000 OA
ATOM     24  C   UNL     1     -22.276  17.177 -15.983  0.00  0.00    +0.000 C 
ATOM     25  O   UNL     1     -22.001  16.010 -16.898  0.00  0.00    +0.000 OA
ATOM     26  C   UNL     1     -21.177  16.873 -14.670  0.00  0.00    +0.000 C 
ATOM     27  O   UNL     1     -22.209  16.015 -13.957  0.00  0.00    +0.000 OA
BRANCH  19  29
ATOM     28  O   UNL     1     -21.414  13.993 -15.405  0.00  0.00    +0.000 OA
ATOM     29  C   UNL     1     -21.549  14.496 -15.532  0.00  0.00    +0.000 C 
ENDBRANCH  19  29
ENDBRANCH  18  21
ENDBRANCH   1  18
TORSDOF 5
ENDMDL
MODEL 8
REMARK VINA RESULT:      -7.4     15.065     20.402
REMARK  Name = 
REMARK  5 active torsions:
REMARK  status: ('A' for Active; 'I' for Inactive)
REMARK    1  A    between atoms: C_2  and  C_3
REMARK    2  A    between atoms: C_5  and  O_6
REMARK    3  A    between atoms: O_6  and  C_7
REMARK    4  A    between atoms: C_12  and  C_13
REMARK    5  A    between atoms: C_14  and  C_15
REMARK                            x       y       z     vdW  Elec       q    Type
REMARK                         _______ _______ _______ _____ _____    ______ ____
ROOT
ATOM      1  C   UNL     1     -33.657  -3.651  -6.199  0.00  0.00    +0.000 A 
ATOM      2  C   UNL     1     -34.283  -2.475  -5.852  0.00  0.00    +0.000 A 
ATOM      3  C   UNL     1     -35.643  -2.403  -5.569  0.00  0.00    +0.000 A 
ATOM      4  O   UNL     1     -36.080  -1.577  -4.529  0.00  0.00    +0.000 OA
ATOM      5  C   UNL     1     -36.365  -3.564  -5.771  0.00  0.00    +0.000 A 
ATOM      6  C   UNL     1     -35.789  -4.756  -6.171  0.00  0.00    +0.000 A 
ATOM      7  C   UNL     1     -34.460  -4.701  -6.576  0.00  0.00    +0.000 A 
ENDROOT
BRANCH   6   8
ATOM      8  C   UNL     1     -36.629  -5.671  -6.958  0.00  0.00    +0.000 C 
ATOM      9  C   UNL     1     -36.884  -5.503  -8.233  0.00  0.00    +0.000 C 
BRANCH   9  10
ATOM     10  C   UNL     1     -36.741  -6.546  -9.245  0.00  0.00    +0.000 A 
ATOM     11  C   UNL     1     -35.768  -7.522  -9.200  0.00  0.00    +0.000 A 
ATOM     12  C   UNL     1     -35.123  -7.863 -10.384  0.00  0.00    +0.000 A 
ATOM     13  C   UNL     1     -35.710  -7.568 -11.605  0.00  0.00    +0.000 A 
ATOM     14  O   UNL     1     -34.986  -7.582 -12.784  0.00  0.00    +0.000 OA
ATOM     15  C   UNL     1     -36.989  -7.024 -11.557  0.00  0.00    +0.000 A 
ATOM     16  C   UNL     1     -37.496  -6.461 -10.396  0.00  0.00    +0.000 A 
ATOM     17  O   UNL     1     -38.802  -5.995 -10.297  0.00  0.00    +0.000 OA
ENDBRANCH   9  10
ENDBRANCH   6   8
BRANCH   1  18
ATOM     18  O   UNL     1     -32.300  -3.882  -6.059  0.00  0.00    +0.000 OA
BRANCH  18  21
ATOM     19  C   UNL     1     -32.471  -5.461  -2.992  0.00  0.00    +0.000 C 
ATOM     20  O   UNL     1     -31.911  -4.335  -3.882  0.00  0.00    +0.000 OA
ATOM     21  C   UNL     1     -32.151  -5.183  -5.166  0.00  0.00    +0.000 C 
ATOM     22  C   UNL     1     -30.433  -5.329  -5.549  0.00  0.00    +0.000 C 
ATOM     23  O   UNL     1     -30.091  -3.893  -5.252  0.00  0.00    +0.000 OA
ATOM     24  C   UNL     1     -30.002  -5.975  -3.981  0.00  0.00    +0.000 C 
ATOM     25  O   UNL     1     -30.175  -4.690  -3.211  0.00  0.00    +0.000 OA
ATOM     26  C   UNL     1     -31.555  -6.730  -3.777  0.00  0.00    +0.000 C 
ATOM     27  O   UNL     1     -31.106  -7.392  -2.486  0.00  0.00    +0.000 OA
BRANCH  19  29
ATOM     28  O   UNL     1     -31.722  -5.065  -1.263  0.00  0.00    +0.000 OA
ATOM     29  C   UNL     1     -31.455  -5.285  -1.672  0.00  0.00    +0.000 C 
ENDBRANCH  19  29
ENDBRANCH  18  21
ENDBRANCH   1  18
TORSDOF 5
ENDMDL
MODEL 9
REMARK VINA RESULT:      -7.3     18.857     20.828
REMARK  Name = 
REMARK  5 active torsions:
REMARK  status: ('A' for Active; 'I' for Inactive)
REMARK    1  A    between atoms: C_2  and  C_3
REMARK    2  A    between atoms: C_5  and  O_6
REMARK    3  A    between atoms: O_6  and  C_7
REMARK    4  A    between atoms: C_12  and  C_13
REMARK    5  A    between atoms: C_14  and  C_15
REMARK                            x       y       z     vdW  Elec       q    Type
REMARK                         _______ _______ _______ _____ _____    ______ ____
ROOT
ATOM      1  C   UNL     1     -29.151   7.554 -11.302  0.00  0.00    +0.000 A 
ATOM      2  C   UNL     1     -29.096   6.228 -11.672  0.00  0.00    +0.000 A 
ATOM      3  C   UNL     1     -28.248   5.312 -11.058  0.00  0.00    +0.000 A 
ATOM      4  O   UNL     1     -28.707   4.014 -10.817  0.00  0.00    +0.000 OA
ATOM      5  C   UNL     1     -27.368   5.831 -10.129  0.00  0.00    +0.000 A 
ATOM      6  C   UNL     1     -27.348   7.165  -9.763  0.00  0.00    +0.000 A 
ATOM      7  C   UNL     1     -28.119   8.032 -10.530  0.00  0.00    +0.000 A 
ENDROOT
BRANCH   6   8
ATOM      8  C   UNL     1     -26.057   7.719  -9.329  0.00  0.00    +0.000 C 
ATOM      9  C   UNL     1     -25.940   8.837  -8.654  0.00  0.00    +0.000 C 
BRANCH   9  10
ATOM     10  C   UNL     1     -25.148   8.982  -7.436  0.00  0.00    +0.000 A 
ATOM     11  C   UNL     1     -24.256   8.030  -6.989  0.00  0.00    +0.000 A 
ATOM     12  C   UNL     1     -24.221   7.748  -5.628  0.00  0.00    +0.000 A 
ATOM     13  C   UNL     1     -24.727   8.663  -4.716  0.00  0.00    +0.000 A 
ATOM     14  O   UNL     1     -25.015   8.307  -3.410  0.00  0.00    +0.000 OA
ATOM     15  C   UNL     1     -25.156   9.878  -5.237  0.00  0.00    +0.000 A 
ATOM     16  C   UNL     1     -25.421  10.036  -6.589  0.00  0.00    +0.000 A 
ATOM     17  O   UNL     1     -25.762  11.262  -7.148  0.00  0.00    +0.000 OA
ENDBRANCH   9  10
ENDBRANCH   6   8
BRANCH   1  18
ATOM     18  O   UNL     1     -30.232   8.384 -11.538  0.00  0.00    +0.000 OA
BRANCH  18  21
ATOM     19  C   UNL     1     -32.922   6.906  -9.951  0.00  0.00    +0.000 C 
ATOM     20  O   UNL     1     -32.339   7.667 -11.158  0.00  0.00    +0.000 OA
ATOM     21  C   UNL     1     -31.190   8.248 -10.282  0.00  0.00    +0.000 C 
ATOM     22  C   UNL     1     -31.740   9.919 -10.438  0.00  0.00    +0.000 C 
ATOM     23  O   UNL     1     -32.039   9.841 -11.912  0.00  0.00    +0.000 OA
ATOM     24  C   UNL     1     -33.361   9.579  -9.876  0.00  0.00    +0.000 C 
ATOM     25  O   UNL     1     -33.822   8.846 -11.112  0.00  0.00    +0.000 OA
ATOM     26  C   UNL     1     -32.821   8.274  -8.862  0.00  0.00    +0.000 C 
ATOM     27  O   UNL     1     -34.215   8.093  -8.288  0.00  0.00    +0.000 OA
BRANCH  19  29
ATOM     28  O   UNL     1     -34.745   6.602 -10.491  0.00  0.00    +0.000 OA
ATOM     29  C   UNL     1     -34.553   7.065 -10.302  0.00  0.00    +0.000 C 
ENDBRANCH  19  29
ENDBRANCH  18  21
ENDBRANCH   1  18
TORSDOF 5
ENDMDL
MODEL 10
REMARK VINA RESULT:      -7.3     16.846     18.900
REMARK  Name = 
REMARK  5 active torsions:
REMARK  status: ('A' for Active; 'I' for Inactive)
REMARK    1  A    between atoms: C_2  and  C_3
REMARK    2  A    between atoms: C_5  and  O_6
REMARK    3  A    between atoms: O_6  and  C_7
REMARK    4  A    between atoms: C_12  and  C_13
REMARK    5  A    between atoms: C_14  and  C_15
REMARK                            x       y       z     vdW  Elec       q    Type
REMARK                         _______ _______ _______ _____ _____    ______ ____
ROOT
ATOM      1  C   UNL     1     -26.551   8.344  -8.654  0.00  0.00    +0.000 A 
ATOM      2  C   UNL     1     -27.027   9.593  -8.323  0.00  0.00    +0.000 A 
ATOM      3  C   UNL     1     -26.386  10.425  -7.411  0.00  0.00    +0.000 A 
ATOM      4  O   UNL     1     -26.331  11.799  -7.664  0.00  0.00    +0.000 OA
ATOM      5  C   UNL     1     -25.298   9.879  -6.757  0.00  0.00    +0.000 A 
ATOM      6  C   UNL     1     -24.814   8.610  -7.016  0.00  0.00    +0.000 A 
ATOM      7  C   UNL     1     -25.600   7.797  -7.825  0.00  0.00    +0.000 A 
ENDROOT
BRANCH   6   8
ATOM      8  C   UNL     1     -24.154   7.908  -5.905  0.00  0.00    +0.000 C 
ATOM      9  C   UNL     1     -23.976   8.438  -4.719  0.00  0.00    +0.000 C 
BRANCH   9  10
ATOM     10  C   UNL     1     -24.321   7.777  -3.463  0.00  0.00    +0.000 A 
ATOM     11  C   UNL     1     -23.384   7.312  -2.565  0.00  0.00    +0.000 A 
ATOM     12  C   UNL     1     -23.603   6.077  -1.965  0.00  0.00    +0.000 A 
ATOM     13  C   UNL     1     -24.882   5.541  -1.926  0.00  0.00    +0.000 A 
ATOM     14  O   UNL     1     -25.103   4.205  -1.646  0.00  0.00    +0.000 OA
ATOM     15  C   UNL     1     -25.902   6.348  -2.417  0.00  0.00    +0.000 A 
ATOM     16  C   UNL     1     -25.638   7.439  -3.231  0.00  0.00    +0.000 A 
ATOM     17  O   UNL     1     -26.630   8.313  -3.659  0.00  0.00    +0.000 OA
ENDBRANCH   9  10
ENDBRANCH   6   8
BRANCH   1  18
ATOM     18  O   UNL     1     -26.860   7.677  -9.826  0.00  0.00    +0.000 OA
BRANCH  18  21
ATOM     19  C   UNL     1     -30.274   7.422  -9.358  0.00  0.00    +0.000 C 
ATOM     20  O   UNL     1     -28.915   6.758  -9.654  0.00  0.00    +0.000 OA
ATOM     21  C   UNL     1     -28.341   8.096 -10.207  0.00  0.00    +0.000 C 
ATOM     22  C   UNL     1     -28.159   7.488 -11.855  0.00  0.00    +0.000 C 
ATOM     23  O   UNL     1     -27.590   6.151 -11.460  0.00  0.00    +0.000 OA
ATOM     24  C   UNL     1     -29.826   6.974 -11.993  0.00  0.00    +0.000 C 
ATOM     25  O   UNL     1     -29.716   5.785 -11.070  0.00  0.00    +0.000 OA
ATOM     26  C   UNL     1     -30.381   8.219 -10.914  0.00  0.00    +0.000 C 
ATOM     27  O   UNL     1     -31.831   7.838 -11.161  0.00  0.00    +0.000 OA
BRANCH  19  29
ATOM     28  O   UNL     1     -31.464   5.910  -9.285  0.00  0.00    +0.000 OA
ATOM     29  C   UNL     1     -31.283   6.138  -9.734  0.00  0.00    +0.000 C 
ENDBRANCH  19  29
ENDBRANCH  18  21
ENDBRANCH   1  18
TORSDOF 5
ENDMDL
