MODEL 1
REMARK VINA RESULT:      -7.5      0.000      0.000
REMARK  Name = 
REMARK  5 active torsions:
REMARK  status: ('A' for Active; 'I' for Inactive)
REMARK    1  A    between atoms: C_2  and  C_3
REMARK    2  A    between atoms: C_5  and  O_6
REMARK    3  A    between atoms: O_6  and  C_7
REMARK    4  A    between atoms: C_13  and  C_14
REMARK    5  A    between atoms: C_15  and  C_16
REMARK                            x       y       z     vdW  Elec       q    Type
REMARK                         _______ _______ _______ _____ _____    ______ ____
ROOT
ATOM      1  C   UNL     1     -23.088   9.586  -3.078  0.00  0.00    +0.000 A 
ATOM      2  C   UNL     1     -22.140  10.569  -2.840  0.00  0.00    +0.000 A 
ATOM      3  C   UNL     1     -22.107  11.771  -3.536  0.00  0.00    +0.000 A 
ATOM      4  O   UNL     1     -21.271  12.777  -3.104  0.00  0.00    +0.000 OA
ATOM      5  C   UNL     1     -23.322  12.132  -4.109  0.00  0.00    +0.000 A 
ATOM      6  C   UNL     1     -24.245  11.146  -4.411  0.00  0.00    +0.000 A 
ATOM      7  C   UNL     1     -23.980   9.818  -4.091  0.00  0.00    +0.000 A 
ENDROOT
BRANCH   7   8
ATOM      8  C   UNL     1     -24.273   8.703  -4.989  0.00  0.00    +0.000 C 
ATOM      9  C   UNL     1     -24.233   8.738  -6.289  0.00  0.00    +0.000 C 
BRANCH   9  10
ATOM     10  C   UNL     1     -25.309   8.632  -7.238  0.00  0.00    +0.000 A 
ATOM     11  C   UNL     1     -25.788   7.490  -7.804  0.00  0.00    +0.000 A 
ATOM     12  C   UNL     1     -26.560   7.593  -8.955  0.00  0.00    +0.000 A 
ATOM     13  O   UNL     1     -26.499   6.630  -9.967  0.00  0.00    +0.000 OA
ATOM     14  C   UNL     1     -27.066   8.823  -9.359  0.00  0.00    +0.000 A 
ATOM     15  C   UNL     1     -26.954   9.906  -8.495  0.00  0.00    +0.000 A 
ATOM     16  O   UNL     1     -27.477  11.158  -8.827  0.00  0.00    +0.000 OA
ATOM     17  C   UNL     1     -26.032   9.794  -7.497  0.00  0.00    +0.000 A 
ENDBRANCH   9  10
ENDBRANCH   7   8
BRANCH   1  18
ATOM     18  O   UNL     1     -23.347   8.518  -2.223  0.00  0.00    +0.000 OA
BRANCH  18  21
ATOM     19  C   UNL     1     -22.075   6.986  -0.193  0.00  0.00    +0.000 C 
ATOM     20  O   UNL     1     -21.591   8.272  -0.859  0.00  0.00    +0.000 OA
ATOM     21  C   UNL     1     -22.895   9.138  -0.849  0.00  0.00    +0.000 C 
ATOM     22  C   UNL     1     -23.725   8.095   0.296  0.00  0.00    +0.000 C 
ATOM     23  O   UNL     1     -24.919   9.038   0.347  0.00  0.00    +0.000 OA
ATOM     24  C   UNL     1     -24.513   6.929  -0.714  0.00  0.00    +0.000 C 
ATOM     25  O   UNL     1     -25.102   7.916  -1.704  0.00  0.00    +0.000 OA
ATOM     26  C   UNL     1     -23.058   6.516  -1.562  0.00  0.00    +0.000 C 
ATOM     27  O   UNL     1     -23.112   5.095  -1.066  0.00  0.00    +0.000 OA
BRANCH  19  29
ATOM     28  O   UNL     1     -19.918   6.349  -0.030  0.00  0.00    +0.000 OA
ATOM     29  C   UNL     1     -20.779   6.145  -0.817  0.00  0.00    +0.000 C 
ENDBRANCH  19  29
ENDBRANCH  18  21
ENDBRANCH   1  18
TORSDOF 5
ENDMDL
MODEL 2
REMARK VINA RESULT:      -7.4      0.863      1.432
REMARK  Name = 
REMARK  5 active torsions:
REMARK  status: ('A' for Active; 'I' for Inactive)
REMARK    1  A    between atoms: C_2  and  C_3
REMARK    2  A    between atoms: C_5  and  O_6
REMARK    3  A    between atoms: O_6  and  C_7
REMARK    4  A    between atoms: C_13  and  C_14
REMARK    5  A    between atoms: C_15  and  C_16
REMARK                            x       y       z     vdW  Elec       q    Type
REMARK                         _______ _______ _______ _____ _____    ______ ____
ROOT
ATOM      1  C   UNL     1     -23.095   9.659  -3.228  0.00  0.00    +0.000 A 
ATOM      2  C   UNL     1     -22.139  10.626  -2.964  0.00  0.00    +0.000 A 
ATOM      3  C   UNL     1     -22.080  11.836  -3.645  0.00  0.00    +0.000 A 
ATOM      4  O   UNL     1     -21.239  12.826  -3.189  0.00  0.00    +0.000 OA
ATOM      5  C   UNL     1     -23.282  12.218  -4.233  0.00  0.00    +0.000 A 
ATOM      6  C   UNL     1     -24.212  11.247  -4.561  0.00  0.00    +0.000 A 
ATOM      7  C   UNL     1     -23.968   9.913  -4.252  0.00  0.00    +0.000 A 
ENDROOT
BRANCH   7   8
ATOM      8  C   UNL     1     -24.261   8.812  -5.168  0.00  0.00    +0.000 C 
ATOM      9  C   UNL     1     -24.296   8.886  -6.466  0.00  0.00    +0.000 C 
BRANCH   9  10
ATOM     10  C   UNL     1     -25.417   8.757  -7.357  0.00  0.00    +0.000 A 
ATOM     11  C   UNL     1     -26.684   9.208  -7.144  0.00  0.00    +0.000 A 
ATOM     12  C   UNL     1     -27.713   8.687  -7.918  0.00  0.00    +0.000 A 
ATOM     13  O   UNL     1     -28.995   8.485  -7.394  0.00  0.00    +0.000 OA
ATOM     14  C   UNL     1     -27.433   7.944  -9.059  0.00  0.00    +0.000 A 
ATOM     15  C   UNL     1     -26.122   7.898  -9.518  0.00  0.00    +0.000 A 
ATOM     16  O   UNL     1     -25.783   7.201 -10.681  0.00  0.00    +0.000 OA
ATOM     17  C   UNL     1     -25.153   8.250  -8.627  0.00  0.00    +0.000 A 
ENDBRANCH   9  10
ENDBRANCH   7   8
BRANCH   1  18
ATOM     18  O   UNL     1     -23.381   8.584  -2.390  0.00  0.00    +0.000 OA
BRANCH  18  21
ATOM     19  C   UNL     1     -22.199   7.209  -0.198  0.00  0.00    +0.000 C 
ATOM     20  O   UNL     1     -21.782   8.538  -0.826  0.00  0.00    +0.000 OA
ATOM     21  C   UNL     1     -23.163   9.256  -0.983  0.00  0.00    +0.000 C 
ATOM     22  C   UNL     1     -24.005   8.133   0.075  0.00  0.00    +0.000 C 
ATOM     23  O   UNL     1     -25.292   8.939  -0.030  0.00  0.00    +0.000 OA
ATOM     24  C   UNL     1     -24.538   6.883  -1.000  0.00  0.00    +0.000 C 
ATOM     25  O   UNL     1     -25.109   7.795  -2.069  0.00  0.00    +0.000 OA
ATOM     26  C   UNL     1     -22.956   6.628  -1.665  0.00  0.00    +0.000 C 
ATOM     27  O   UNL     1     -22.914   5.212  -1.154  0.00  0.00    +0.000 OA
BRANCH  19  29
ATOM     28  O   UNL     1     -19.947   7.168  -0.086  0.00  0.00    +0.000 OA
ATOM     29  C   UNL     1     -20.755   6.512  -0.652  0.00  0.00    +0.000 C 
ENDBRANCH  19  29
ENDBRANCH  18  21
ENDBRANCH   1  18
TORSDOF 5
ENDMDL
MODEL 3
REMARK VINA RESULT:      -7.4     16.191     18.809
REMARK  Name = 
REMARK  5 active torsions:
REMARK  status: ('A' for Active; 'I' for Inactive)
REMARK    1  A    between atoms: C_2  and  C_3
REMARK    2  A    between atoms: C_5  and  O_6
REMARK    3  A    between atoms: O_6  and  C_7
REMARK    4  A    between atoms: C_13  and  C_14
REMARK    5  A    between atoms: C_15  and  C_16
REMARK                            x       y       z     vdW  Elec       q    Type
REMARK                         _______ _______ _______ _____ _____    ______ ____
ROOT
ATOM      1  C   UNL     1     -32.617  -5.320  -3.189  0.00  0.00    +0.000 A 
ATOM      2  C   UNL     1     -32.110  -4.673  -2.073  0.00  0.00    +0.000 A 
ATOM      3  C   UNL     1     -32.144  -5.227  -0.798  0.00  0.00    +0.000 A 
ATOM      4  O   UNL     1     -31.439  -4.621   0.218  0.00  0.00    +0.000 OA
ATOM      5  C   UNL     1     -32.254  -6.613  -0.782  0.00  0.00    +0.000 A 
ATOM      6  C   UNL     1     -32.823  -7.258  -1.867  0.00  0.00    +0.000 A 
ATOM      7  C   UNL     1     -33.224  -6.530  -2.982  0.00  0.00    +0.000 A 
ENDROOT
BRANCH   7   8
ATOM      8  C   UNL     1     -34.478  -6.777  -3.691  0.00  0.00    +0.000 C 
ATOM      9  C   UNL     1     -35.329  -7.725  -3.432  0.00  0.00    +0.000 C 
BRANCH   9  10
ATOM     10  C   UNL     1     -35.682  -8.875  -4.220  0.00  0.00    +0.000 A 
ATOM     11  C   UNL     1     -36.229 -10.038  -3.768  0.00  0.00    +0.000 A 
ATOM     12  C   UNL     1     -36.162 -11.162  -4.580  0.00  0.00    +0.000 A 
ATOM     13  O   UNL     1     -36.002 -12.445  -4.045  0.00  0.00    +0.000 OA
ATOM     14  C   UNL     1     -35.807 -11.047  -5.919  0.00  0.00    +0.000 A 
ATOM     15  C   UNL     1     -35.712  -9.778  -6.476  0.00  0.00    +0.000 A 
ATOM     16  O   UNL     1     -35.397  -9.598  -7.826  0.00  0.00    +0.000 OA
ATOM     17  C   UNL     1     -35.591  -8.739  -5.603  0.00  0.00    +0.000 A 
ENDBRANCH   9  10
ENDBRANCH   7   8
BRANCH   1  18
ATOM     18  O   UNL     1     -32.343  -4.954  -4.504  0.00  0.00    +0.000 OA
BRANCH  18  21
ATOM     19  C   UNL     1     -33.573  -3.030  -6.199  0.00  0.00    +0.000 C 
ATOM     20  O   UNL     1     -33.627  -3.130  -4.676  0.00  0.00    +0.000 OA
ATOM     21  C   UNL     1     -32.127  -3.404  -4.328  0.00  0.00    +0.000 C 
ATOM     22  C   UNL     1     -31.547  -2.948  -5.922  0.00  0.00    +0.000 C 
ATOM     23  O   UNL     1     -30.098  -3.125  -5.488  0.00  0.00    +0.000 OA
ATOM     24  C   UNL     1     -31.605  -4.431  -6.816  0.00  0.00    +0.000 C 
ATOM     25  O   UNL     1     -30.932  -5.299  -5.770  0.00  0.00    +0.000 OA
ATOM     26  C   UNL     1     -33.263  -4.739  -6.411  0.00  0.00    +0.000 C 
ATOM     27  O   UNL     1     -33.683  -4.660  -7.855  0.00  0.00    +0.000 OA
BRANCH  19  29
ATOM     28  O   UNL     1     -35.682  -2.290  -5.898  0.00  0.00    +0.000 OA
ATOM     29  C   UNL     1     -35.214  -3.301  -6.301  0.00  0.00    +0.000 C 
ENDBRANCH  19  29
ENDBRANCH  18  21
ENDBRANCH   1  18
TORSDOF 5
ENDMDL
MODEL 4
REMARK VINA RESULT:      -7.4      4.022      7.867
REMARK  Name = 
REMARK  5 active torsions:
REMARK  status: ('A' for Active; 'I' for Inactive)
REMARK    1  A    between atoms: C_2  and  C_3
REMARK    2  A    between atoms: C_5  and  O_6
REMARK    3  A    between atoms: O_6  and  C_7
REMARK    4  A    between atoms: C_13  and  C_14
REMARK    5  A    between atoms: C_15  and  C_16
REMARK                            x       y       z     vdW  Elec       q    Type
REMARK                         _______ _______ _______ _____ _____    ______ ____
ROOT
ATOM      1  C   UNL     1     -26.009   9.835  -7.435  0.00  0.00    +0.000 A 
ATOM      2  C   UNL     1     -25.426  10.371  -6.297  0.00  0.00    +0.000 A 
ATOM      3  C   UNL     1     -24.449   9.706  -5.565  0.00  0.00    +0.000 A 
ATOM      4  O   UNL     1     -23.773  10.383  -4.574  0.00  0.00    +0.000 OA
ATOM      5  C   UNL     1     -23.758   8.736  -6.283  0.00  0.00    +0.000 A 
ATOM      6  C   UNL     1     -24.364   8.150  -7.381  0.00  0.00    +0.000 A 
ATOM      7  C   UNL     1     -25.626   8.570  -7.791  0.00  0.00    +0.000 A 
ENDROOT
BRANCH   7   8
ATOM      8  C   UNL     1     -26.679   7.648  -8.213  0.00  0.00    +0.000 C 
ATOM      9  C   UNL     1     -26.757   7.054  -9.367  0.00  0.00    +0.000 C 
BRANCH   9  10
ATOM     10  C   UNL     1     -27.714   7.237 -10.424  0.00  0.00    +0.000 A 
ATOM     11  C   UNL     1     -27.615   8.098 -11.475  0.00  0.00    +0.000 A 
ATOM     12  C   UNL     1     -28.766   8.415 -12.185  0.00  0.00    +0.000 A 
ATOM     13  O   UNL     1     -28.966   9.690 -12.725  0.00  0.00    +0.000 OA
ATOM     14  C   UNL     1     -29.928   7.671 -12.016  0.00  0.00    +0.000 A 
ATOM     15  C   UNL     1     -29.864   6.494 -11.281  0.00  0.00    +0.000 A 
ATOM     16  O   UNL     1     -30.989   5.682 -11.109  0.00  0.00    +0.000 OA
ATOM     17  C   UNL     1     -28.785   6.347 -10.462  0.00  0.00    +0.000 A 
ENDBRANCH   9  10
ENDBRANCH   7   8
BRANCH   1  18
ATOM     18  O   UNL     1     -26.753  10.567  -8.357  0.00  0.00    +0.000 OA
BRANCH  18  21
ATOM     19  C   UNL     1     -29.121  12.119  -8.092  0.00  0.00    +0.000 C 
ATOM     20  O   UNL     1     -28.157  11.658  -7.001  0.00  0.00    +0.000 OA
ATOM     21  C   UNL     1     -26.771  11.975  -7.654  0.00  0.00    +0.000 C 
ATOM     22  C   UNL     1     -27.460  12.986  -8.915  0.00  0.00    +0.000 C 
ATOM     23  O   UNL     1     -26.075  13.346  -9.435  0.00  0.00    +0.000 OA
ATOM     24  C   UNL     1     -27.801  11.868 -10.193  0.00  0.00    +0.000 C 
ATOM     25  O   UNL     1     -26.463  11.153 -10.169  0.00  0.00    +0.000 OA
ATOM     26  C   UNL     1     -28.707  10.802  -9.168  0.00  0.00    +0.000 C 
ATOM     27  O   UNL     1     -29.966  11.024  -9.964  0.00  0.00    +0.000 OA
BRANCH  19  29
ATOM     28  O   UNL     1     -31.032  12.018  -6.899  0.00  0.00    +0.000 OA
ATOM     29  C   UNL     1     -30.349  11.209  -7.429  0.00  0.00    +0.000 C 
ENDBRANCH  19  29
ENDBRANCH  18  21
ENDBRANCH   1  18
TORSDOF 5
ENDMDL
MODEL 5
REMARK VINA RESULT:      -7.3     15.358     17.920
REMARK  Name = 
REMARK  5 active torsions:
REMARK  status: ('A' for Active; 'I' for Inactive)
REMARK    1  A    between atoms: C_2  and  C_3
REMARK    2  A    between atoms: C_5  and  O_6
REMARK    3  A    between atoms: O_6  and  C_7
REMARK    4  A    between atoms: C_13  and  C_14
REMARK    5  A    between atoms: C_15  and  C_16
REMARK                            x       y       z     vdW  Elec       q    Type
REMARK                         _______ _______ _______ _____ _____    ______ ____
ROOT
ATOM      1  C   UNL     1     -32.632  -5.329  -3.293  0.00  0.00    +0.000 A 
ATOM      2  C   UNL     1     -32.102  -4.768  -2.142  0.00  0.00    +0.000 A 
ATOM      3  C   UNL     1     -32.235  -5.352  -0.887  0.00  0.00    +0.000 A 
ATOM      4  O   UNL     1     -31.509  -4.848   0.170  0.00  0.00    +0.000 OA
ATOM      5  C   UNL     1     -32.482  -6.720  -0.918  0.00  0.00    +0.000 A 
ATOM      6  C   UNL     1     -33.074  -7.274  -2.040  0.00  0.00    +0.000 A 
ATOM      7  C   UNL     1     -33.363  -6.477  -3.144  0.00  0.00    +0.000 A 
ENDROOT
BRANCH   7   8
ATOM      8  C   UNL     1     -34.609  -6.578  -3.900  0.00  0.00    +0.000 C 
ATOM      9  C   UNL     1     -35.430  -5.601  -4.154  0.00  0.00    +0.000 C 
BRANCH   9  10
ATOM     10  C   UNL     1     -36.769  -5.387  -3.675  0.00  0.00    +0.000 A 
ATOM     11  C   UNL     1     -37.661  -6.341  -3.292  0.00  0.00    +0.000 A 
ATOM     12  C   UNL     1     -39.005  -6.000  -3.214  0.00  0.00    +0.000 A 
ATOM     13  O   UNL     1     -40.014  -6.913  -3.543  0.00  0.00    +0.000 OA
ATOM     14  C   UNL     1     -39.400  -4.668  -3.248  0.00  0.00    +0.000 A 
ATOM     15  C   UNL     1     -38.424  -3.682  -3.164  0.00  0.00    +0.000 A 
ATOM     16  O   UNL     1     -38.760  -2.325  -3.153  0.00  0.00    +0.000 OA
ATOM     17  C   UNL     1     -37.147  -4.066  -3.441  0.00  0.00    +0.000 A 
ENDBRANCH   9  10
ENDBRANCH   7   8
BRANCH   1  18
ATOM     18  O   UNL     1     -32.278  -4.955  -4.587  0.00  0.00    +0.000 OA
BRANCH  18  21
ATOM     19  C   UNL     1     -33.165  -2.872  -6.309  0.00  0.00    +0.000 C 
ATOM     20  O   UNL     1     -33.339  -2.997  -4.797  0.00  0.00    +0.000 OA
ATOM     21  C   UNL     1     -31.907  -3.443  -4.353  0.00  0.00    +0.000 C 
ATOM     22  C   UNL     1     -31.167  -3.022  -5.890  0.00  0.00    +0.000 C 
ATOM     23  O   UNL     1     -29.782  -3.367  -5.360  0.00  0.00    +0.000 OA
ATOM     24  C   UNL     1     -31.321  -4.471  -6.826  0.00  0.00    +0.000 C 
ATOM     25  O   UNL     1     -30.825  -5.429  -5.760  0.00  0.00    +0.000 OA
ATOM     26  C   UNL     1     -33.028  -4.601  -6.547  0.00  0.00    +0.000 C 
ATOM     27  O   UNL     1     -33.332  -4.448  -8.014  0.00  0.00    +0.000 OA
BRANCH  19  29
ATOM     28  O   UNL     1     -35.234  -2.159  -5.767  0.00  0.00    +0.000 OA
ATOM     29  C   UNL     1     -34.813  -2.958  -6.533  0.00  0.00    +0.000 C 
ENDBRANCH  19  29
ENDBRANCH  18  21
ENDBRANCH   1  18
TORSDOF 5
ENDMDL
MODEL 6
REMARK VINA RESULT:      -7.1     13.135     17.173
REMARK  Name = 
REMARK  5 active torsions:
REMARK  status: ('A' for Active; 'I' for Inactive)
REMARK    1  A    between atoms: C_2  and  C_3
REMARK    2  A    between atoms: C_5  and  O_6
REMARK    3  A    between atoms: O_6  and  C_7
REMARK    4  A    between atoms: C_13  and  C_14
REMARK    5  A    between atoms: C_15  and  C_16
REMARK                            x       y       z     vdW  Elec       q    Type
REMARK                         _______ _______ _______ _____ _____    ______ ____
ROOT
ATOM      1  C   UNL     1     -27.763  -2.225   5.983  0.00  0.00    +0.000 A 
ATOM      2  C   UNL     1     -28.259  -0.996   5.577  0.00  0.00    +0.000 A 
ATOM      3  C   UNL     1     -27.545  -0.125   4.763  0.00  0.00    +0.000 A 
ATOM      4  O   UNL     1     -28.180   0.976   4.234  0.00  0.00    +0.000 OA
ATOM      5  C   UNL     1     -26.555  -0.738   4.002  0.00  0.00    +0.000 A 
ATOM      6  C   UNL     1     -26.009  -1.932   4.440  0.00  0.00    +0.000 A 
ATOM      7  C   UNL     1     -26.487  -2.536   5.598  0.00  0.00    +0.000 A 
ENDROOT
BRANCH   7   8
ATOM      8  C   UNL     1     -25.616  -3.144   6.602  0.00  0.00    +0.000 C 
ATOM      9  C   UNL     1     -24.860  -2.506   7.446  0.00  0.00    +0.000 C 
BRANCH   9  10
ATOM     10  C   UNL     1     -23.425  -2.445   7.519  0.00  0.00    +0.000 A 
ATOM     11  C   UNL     1     -22.622  -3.131   8.379  0.00  0.00    +0.000 A 
ATOM     12  C   UNL     1     -21.319  -2.688   8.566  0.00  0.00    +0.000 A 
ATOM     13  O   UNL     1     -20.684  -2.785   9.809  0.00  0.00    +0.000 OA
ATOM     14  C   UNL     1     -20.759  -1.753   7.705  0.00  0.00    +0.000 A 
ATOM     15  C   UNL     1     -21.449  -1.418   6.546  0.00  0.00    +0.000 A 
ATOM     16  O   UNL     1     -20.921  -0.514   5.620  0.00  0.00    +0.000 OA
ATOM     17  C   UNL     1     -22.776  -1.723   6.520  0.00  0.00    +0.000 A 
ENDBRANCH   9  10
ENDBRANCH   7   8
BRANCH   1  18
ATOM     18  O   UNL     1     -28.537  -3.244   6.535  0.00  0.00    +0.000 OA
BRANCH  18  21
ATOM     19  C   UNL     1     -29.134  -3.809   9.257  0.00  0.00    +0.000 C 
ATOM     20  O   UNL     1     -28.655  -2.497   8.640  0.00  0.00    +0.000 OA
ATOM     21  C   UNL     1     -29.566  -2.397   7.372  0.00  0.00    +0.000 C 
ATOM     22  C   UNL     1     -30.677  -3.641   7.923  0.00  0.00    +0.000 C 
ATOM     23  O   UNL     1     -31.584  -3.417   6.720  0.00  0.00    +0.000 OA
ATOM     24  C   UNL     1     -29.987  -5.105   7.304  0.00  0.00    +0.000 C 
ATOM     25  O   UNL     1     -29.738  -4.606   5.894  0.00  0.00    +0.000 OA
ATOM     26  C   UNL     1     -28.427  -4.790   7.992  0.00  0.00    +0.000 C 
ATOM     27  O   UNL     1     -28.508  -6.016   8.864  0.00  0.00    +0.000 OA
BRANCH  19  29
ATOM     28  O   UNL     1     -27.967  -3.273  11.110  0.00  0.00    +0.000 OA
ATOM     29  C   UNL     1     -27.734  -3.930  10.152  0.00  0.00    +0.000 C 
ENDBRANCH  19  29
ENDBRANCH  18  21
ENDBRANCH   1  18
TORSDOF 5
ENDMDL
MODEL 7
REMARK VINA RESULT:      -7.0     16.407     18.971
REMARK  Name = 
REMARK  5 active torsions:
REMARK  status: ('A' for Active; 'I' for Inactive)
REMARK    1  A    between atoms: C_2  and  C_3
REMARK    2  A    between atoms: C_5  and  O_6
REMARK    3  A    between atoms: O_6  and  C_7
REMARK    4  A    between atoms: C_13  and  C_14
REMARK    5  A    between atoms: C_15  and  C_16
REMARK                            x       y       z     vdW  Elec       q    Type
REMARK                         _______ _______ _______ _____ _____    ______ ____
ROOT
ATOM      1  C   UNL     1     -34.102  -7.162  -4.183  0.00  0.00    +0.000 A 
ATOM      2  C   UNL     1     -34.590  -7.690  -2.998  0.00  0.00    +0.000 A 
ATOM      3  C   UNL     1     -35.645  -8.593  -2.951  0.00  0.00    +0.000 A 
ATOM      4  O   UNL     1     -35.935  -9.229  -1.764  0.00  0.00    +0.000 OA
ATOM      5  C   UNL     1     -35.851  -9.292  -4.135  0.00  0.00    +0.000 A 
ATOM      6  C   UNL     1     -35.427  -8.737  -5.330  0.00  0.00    +0.000 A 
ATOM      7  C   UNL     1     -34.752  -7.520  -5.335  0.00  0.00    +0.000 A 
ENDROOT
BRANCH   7   8
ATOM      8  C   UNL     1     -35.012  -6.463  -6.310  0.00  0.00    +0.000 C 
ATOM      9  C   UNL     1     -36.131  -6.266  -6.942  0.00  0.00    +0.000 C 
BRANCH   9  10
ATOM     10  C   UNL     1     -36.426  -6.413  -8.342  0.00  0.00    +0.000 A 
ATOM     11  C   UNL     1     -37.408  -5.779  -9.041  0.00  0.00    +0.000 A 
ATOM     12  C   UNL     1     -37.790  -6.301 -10.270  0.00  0.00    +0.000 A 
ATOM     13  O   UNL     1     -39.118  -6.245 -10.708  0.00  0.00    +0.000 OA
ATOM     14  C   UNL     1     -37.015  -7.265 -10.901  0.00  0.00    +0.000 A 
ATOM     15  C   UNL     1     -35.759  -7.555 -10.382  0.00  0.00    +0.000 A 
ATOM     16  O   UNL     1     -34.915  -8.487 -10.993  0.00  0.00    +0.000 OA
ATOM     17  C   UNL     1     -35.530  -7.170  -9.095  0.00  0.00    +0.000 A 
ENDBRANCH   9  10
ENDBRANCH   7   8
BRANCH   1  18
ATOM     18  O   UNL     1     -32.881  -6.506  -4.310  0.00  0.00    +0.000 OA
BRANCH  18  21
ATOM     19  C   UNL     1     -31.792  -3.880  -4.390  0.00  0.00    +0.000 C 
ATOM     20  O   UNL     1     -33.219  -4.309  -4.055  0.00  0.00    +0.000 OA
ATOM     21  C   UNL     1     -32.964  -5.514  -3.090  0.00  0.00    +0.000 C 
ATOM     22  C   UNL     1     -31.270  -5.118  -2.846  0.00  0.00    +0.000 C 
ATOM     23  O   UNL     1     -31.114  -6.240  -1.828  0.00  0.00    +0.000 OA
ATOM     24  C   UNL     1     -30.464  -5.973  -4.118  0.00  0.00    +0.000 C 
ATOM     25  O   UNL     1     -31.170  -7.301  -3.919  0.00  0.00    +0.000 OA
ATOM     26  C   UNL     1     -31.473  -5.302  -5.358  0.00  0.00    +0.000 C 
ATOM     27  O   UNL     1     -30.301  -4.622  -6.015  0.00  0.00    +0.000 OA
BRANCH  19  29
ATOM     28  O   UNL     1     -33.095  -2.278  -5.296  0.00  0.00    +0.000 OA
ATOM     29  C   UNL     1     -32.326  -3.063  -5.740  0.00  0.00    +0.000 C 
ENDBRANCH  19  29
ENDBRANCH  18  21
ENDBRANCH   1  18
TORSDOF 5
ENDMDL
MODEL 8
REMARK VINA RESULT:      -6.9      4.460      9.257
REMARK  Name = 
REMARK  5 active torsions:
REMARK  status: ('A' for Active; 'I' for Inactive)
REMARK    1  A    between atoms: C_2  and  C_3
REMARK    2  A    between atoms: C_5  and  O_6
REMARK    3  A    between atoms: O_6  and  C_7
REMARK    4  A    between atoms: C_13  and  C_14
REMARK    5  A    between atoms: C_15  and  C_16
REMARK                            x       y       z     vdW  Elec       q    Type
REMARK                         _______ _______ _______ _____ _____    ______ ____
ROOT
ATOM      1  C   UNL     1     -25.628   5.085  -1.053  0.00  0.00    +0.000 A 
ATOM      2  C   UNL     1     -25.015   3.961  -1.585  0.00  0.00    +0.000 A 
ATOM      3  C   UNL     1     -25.503   2.674  -1.396  0.00  0.00    +0.000 A 
ATOM      4  O   UNL     1     -24.964   1.635  -2.122  0.00  0.00    +0.000 OA
ATOM      5  C   UNL     1     -26.856   2.618  -1.079  0.00  0.00    +0.000 A 
ATOM      6  C   UNL     1     -27.457   3.714  -0.486  0.00  0.00    +0.000 A 
ATOM      7  C   UNL     1     -26.726   4.876  -0.262  0.00  0.00    +0.000 A 
ENDROOT
BRANCH   7   8
ATOM      8  C   UNL     1     -26.817   5.656   0.971  0.00  0.00    +0.000 C 
ATOM      9  C   UNL     1     -26.440   5.264   2.153  0.00  0.00    +0.000 C 
BRANCH   9  10
ATOM     10  C   UNL     1     -27.236   4.979   3.316  0.00  0.00    +0.000 A 
ATOM     11  C   UNL     1     -27.218   5.650   4.501  0.00  0.00    +0.000 A 
ATOM     12  C   UNL     1     -27.760   5.034   5.621  0.00  0.00    +0.000 A 
ATOM     13  O   UNL     1     -27.215   5.219   6.896  0.00  0.00    +0.000 OA
ATOM     14  C   UNL     1     -28.547   3.896   5.490  0.00  0.00    +0.000 A 
ATOM     15  C   UNL     1     -28.942   3.501   4.218  0.00  0.00    +0.000 A 
ATOM     16  O   UNL     1     -29.765   2.389   4.023  0.00  0.00    +0.000 OA
ATOM     17  C   UNL     1     -28.229   4.013   3.175  0.00  0.00    +0.000 A 
ENDBRANCH   9  10
ENDBRANCH   7   8
BRANCH   1  18
ATOM     18  O   UNL     1     -25.361   6.392  -1.455  0.00  0.00    +0.000 OA
BRANCH  18  21
ATOM     19  C   UNL     1     -23.378   8.346  -0.874  0.00  0.00    +0.000 C 
ATOM     20  O   UNL     1     -23.360   6.850  -0.566  0.00  0.00    +0.000 OA
ATOM     21  C   UNL     1     -23.864   6.246  -1.918  0.00  0.00    +0.000 C 
ATOM     22  C   UNL     1     -23.629   7.740  -2.813  0.00  0.00    +0.000 C 
ATOM     23  O   UNL     1     -24.022   7.064  -4.119  0.00  0.00    +0.000 OA
ATOM     24  C   UNL     1     -25.138   8.568  -2.627  0.00  0.00    +0.000 C 
ATOM     25  O   UNL     1     -26.034   7.390  -2.959  0.00  0.00    +0.000 OA
ATOM     26  C   UNL     1     -25.126   8.432  -0.898  0.00  0.00    +0.000 C 
ATOM     27  O   UNL     1     -25.078   9.928  -0.729  0.00  0.00    +0.000 OA
BRANCH  19  29
ATOM     28  O   UNL     1     -22.267   9.102   0.937  0.00  0.00    +0.000 OA
ATOM     29  C   UNL     1     -23.369   8.707   0.753  0.00  0.00    +0.000 C 
ENDBRANCH  19  29
ENDBRANCH  18  21
ENDBRANCH   1  18
TORSDOF 5
ENDMDL
MODEL 9
REMARK VINA RESULT:      -6.9      8.796     10.863
REMARK  Name = 
REMARK  5 active torsions:
REMARK  status: ('A' for Active; 'I' for Inactive)
REMARK    1  A    between atoms: C_2  and  C_3
REMARK    2  A    between atoms: C_5  and  O_6
REMARK    3  A    between atoms: O_6  and  C_7
REMARK    4  A    between atoms: C_13  and  C_14
REMARK    5  A    between atoms: C_15  and  C_16
REMARK                            x       y       z     vdW  Elec       q    Type
REMARK                         _______ _______ _______ _____ _____    ______ ____
ROOT
ATOM      1  C   UNL     1     -29.928   6.983 -10.462  0.00  0.00    +0.000 A 
ATOM      2  C   UNL     1     -29.830   5.607 -10.338  0.00  0.00    +0.000 A 
ATOM      3  C   UNL     1     -28.686   4.897 -10.681  0.00  0.00    +0.000 A 
ATOM      4  O   UNL     1     -28.590   3.567 -10.336  0.00  0.00    +0.000 OA
ATOM      5  C   UNL     1     -27.522   5.658 -10.684  0.00  0.00    +0.000 A 
ATOM      6  C   UNL     1     -27.610   7.026 -10.876  0.00  0.00    +0.000 A 
ATOM      7  C   UNL     1     -28.855   7.635 -11.008  0.00  0.00    +0.000 A 
ENDROOT
BRANCH   7   8
ATOM      8  C   UNL     1     -29.136   8.678 -11.991  0.00  0.00    +0.000 C 
ATOM      9  C   UNL     1     -28.470   9.785 -12.144  0.00  0.00    +0.000 C 
BRANCH   9  10
ATOM     10  C   UNL     1     -28.883  11.140 -11.895  0.00  0.00    +0.000 A 
ATOM     11  C   UNL     1     -28.213  12.274 -12.241  0.00  0.00    +0.000 A 
ATOM     12  C   UNL     1     -28.555  13.464 -11.612  0.00  0.00    +0.000 A 
ATOM     13  O   UNL     1     -27.595  14.438 -11.316  0.00  0.00    +0.000 OA
ATOM     14  C   UNL     1     -29.722  13.560 -10.865  0.00  0.00    +0.000 A 
ATOM     15  C   UNL     1     -30.635  12.513 -10.919  0.00  0.00    +0.000 A 
ATOM     16  O   UNL     1     -31.845  12.566 -10.221  0.00  0.00    +0.000 OA
ATOM     17  C   UNL     1     -30.164  11.320 -11.377  0.00  0.00    +0.000 A 
ENDBRANCH   9  10
ENDBRANCH   7   8
BRANCH   1  18
ATOM     18  O   UNL     1     -30.917   7.760  -9.863  0.00  0.00    +0.000 OA
BRANCH  18  21
ATOM     19  C   UNL     1     -33.708   7.610  -9.338  0.00  0.00    +0.000 C 
ATOM     20  O   UNL     1     -32.768   6.505  -9.815  0.00  0.00    +0.000 OA
ATOM     21  C   UNL     1     -31.539   6.710  -8.869  0.00  0.00    +0.000 C 
ATOM     22  C   UNL     1     -32.413   7.755  -7.759  0.00  0.00    +0.000 C 
ATOM     23  O   UNL     1     -31.216   7.824  -6.821  0.00  0.00    +0.000 OA
ATOM     24  C   UNL     1     -32.168   9.340  -8.413  0.00  0.00    +0.000 C 
ATOM     25  O   UNL     1     -30.671   9.217  -8.627  0.00  0.00    +0.000 OA
ATOM     26  C   UNL     1     -32.715   8.891  -9.997  0.00  0.00    +0.000 C 
ATOM     27  O   UNL     1     -33.870   9.855  -9.927  0.00  0.00    +0.000 OA
BRANCH  19  29
ATOM     28  O   UNL     1     -35.320   6.630 -10.573  0.00  0.00    +0.000 OA
ATOM     29  C   UNL     1     -34.570   7.527 -10.761  0.00  0.00    +0.000 C 
ENDBRANCH  19  29
ENDBRANCH  18  21
ENDBRANCH   1  18
TORSDOF 5
ENDMDL
MODEL 10
REMARK VINA RESULT:      -6.9      3.908      8.586
REMARK  Name = 
REMARK  5 active torsions:
REMARK  status: ('A' for Active; 'I' for Inactive)
REMARK    1  A    between atoms: C_2  and  C_3
REMARK    2  A    between atoms: C_5  and  O_6
REMARK    3  A    between atoms: O_6  and  C_7
REMARK    4  A    between atoms: C_13  and  C_14
REMARK    5  A    between atoms: C_15  and  C_16
REMARK                            x       y       z     vdW  Elec       q    Type
REMARK                         _______ _______ _______ _____ _____    ______ ____
ROOT
ATOM      1  C   UNL     1     -25.206   5.240  -0.561  0.00  0.00    +0.000 A 
ATOM      2  C   UNL     1     -25.211   4.154  -1.422  0.00  0.00    +0.000 A 
ATOM      3  C   UNL     1     -25.823   2.946  -1.111  0.00  0.00    +0.000 A 
ATOM      4  O   UNL     1     -25.967   1.991  -2.092  0.00  0.00    +0.000 OA
ATOM      5  C   UNL     1     -26.817   3.044  -0.142  0.00  0.00    +0.000 A 
ATOM      6  C   UNL     1     -26.777   4.090   0.763  0.00  0.00    +0.000 A 
ATOM      7  C   UNL     1     -25.786   5.061   0.666  0.00  0.00    +0.000 A 
ENDROOT
BRANCH   7   8
ATOM      8  C   UNL     1     -25.076   5.600   1.825  0.00  0.00    +0.000 C 
ATOM      9  C   UNL     1     -25.625   6.119   2.884  0.00  0.00    +0.000 C 
BRANCH   9  10
ATOM     10  C   UNL     1     -25.605   7.480   3.348  0.00  0.00    +0.000 A 
ATOM     11  C   UNL     1     -25.963   8.588   2.641  0.00  0.00    +0.000 A 
ATOM     12  C   UNL     1     -25.540   9.830   3.097  0.00  0.00    +0.000 A 
ATOM     13  O   UNL     1     -25.202  10.860   2.212  0.00  0.00    +0.000 OA
ATOM     14  C   UNL     1     -25.014   9.973   4.375  0.00  0.00    +0.000 A 
ATOM     15  C   UNL     1     -25.098   8.900   5.254  0.00  0.00    +0.000 A 
ATOM     16  O   UNL     1     -24.623   8.994   6.565  0.00  0.00    +0.000 OA
ATOM     17  C   UNL     1     -25.332   7.678   4.699  0.00  0.00    +0.000 A 
ENDBRANCH   9  10
ENDBRANCH   7   8
BRANCH   1  18
ATOM     18  O   UNL     1     -24.879   6.541  -0.936  0.00  0.00    +0.000 OA
BRANCH  18  21
ATOM     19  C   UNL     1     -22.406   7.871  -1.389  0.00  0.00    +0.000 C 
ATOM     20  O   UNL     1     -22.683   6.370  -1.328  0.00  0.00    +0.000 OA
ATOM     21  C   UNL     1     -23.979   6.256  -2.196  0.00  0.00    +0.000 C 
ATOM     22  C   UNL     1     -23.811   7.867  -2.877  0.00  0.00    +0.000 C 
ATOM     23  O   UNL     1     -25.018   7.652  -3.781  0.00  0.00    +0.000 OA
ATOM     24  C   UNL     1     -24.660   8.875  -1.753  0.00  0.00    +0.000 C 
ATOM     25  O   UNL     1     -25.903   8.013  -1.639  0.00  0.00    +0.000 OA
ATOM     26  C   UNL     1     -23.779   8.277  -0.383  0.00  0.00    +0.000 C 
ATOM     27  O   UNL     1     -23.198   9.638  -0.099  0.00  0.00    +0.000 OA
BRANCH  19  29
ATOM     28  O   UNL     1     -20.386   7.435  -0.487  0.00  0.00    +0.000 OA
ATOM     29  C   UNL     1     -21.431   7.773  -0.042  0.00  0.00    +0.000 C 
ENDBRANCH  19  29
ENDBRANCH  18  21
ENDBRANCH   1  18
TORSDOF 5
ENDMDL
