MODEL 1
REMARK VINA RESULT:      -8.2      0.000      0.000
REMARK  Name = 
REMARK  5 active torsions:
REMARK  status: ('A' for Active; 'I' for Inactive)
REMARK    1  A    between atoms: C_2  and  C_3
REMARK    2  A    between atoms: C_5  and  O_6
REMARK    3  A    between atoms: O_6  and  C_7
REMARK    4  A    between atoms: C_13  and  C_14
REMARK    5  A    between atoms: C_15  and  C_16
REMARK                            x       y       z     vdW  Elec       q    Type
REMARK                         _______ _______ _______ _____ _____    ______ ____
ROOT
ATOM      1  C   UNL     1     -18.978  -6.426   7.580  0.00  0.00    +0.000 A 
ATOM      2  C   UNL     1     -19.539  -6.822   8.729  0.00  0.00    +0.000 A 
ATOM      3  C   UNL     1     -19.294  -6.488   9.995  0.00  0.00    +0.000 A 
ATOM      4  O   UNL     1     -18.970  -7.399  10.964  0.00  0.00    +0.000 OA
ATOM      5  C   UNL     1     -19.119  -5.114  10.058  0.00  0.00    +0.000 A 
ATOM      6  C   UNL     1     -18.931  -4.456   8.842  0.00  0.00    +0.000 A 
ATOM      7  C   UNL     1     -18.522  -5.159   7.700  0.00  0.00    +0.000 A 
ENDROOT
BRANCH   7   8
ATOM      8  C   UNL     1     -17.996  -4.487   6.511  0.00  0.00    +0.000 C 
ATOM      9  C   UNL     1     -17.036  -3.635   6.456  0.00  0.00    +0.000 C 
BRANCH   9  10
ATOM     10  C   UNL     1     -16.983  -2.196   6.656  0.00  0.00    +0.000 A 
ATOM     11  C   UNL     1     -18.243  -1.598   6.741  0.00  0.00    +0.000 A 
ATOM     12  C   UNL     1     -18.491  -0.281   6.506  0.00  0.00    +0.000 A 
ATOM     13  O   UNL     1     -19.805   0.198   6.562  0.00  0.00    +0.000 OA
ATOM     14  C   UNL     1     -17.492   0.495   5.973  0.00  0.00    +0.000 A 
ATOM     15  C   UNL     1     -16.331  -0.123   5.554  0.00  0.00    +0.000 A 
ATOM     16  O   UNL     1     -15.317   0.743   5.137  0.00  0.00    +0.000 OA
ATOM     17  C   UNL     1     -16.040  -1.367   6.048  0.00  0.00    +0.000 A 
ENDBRANCH   9  10
ENDBRANCH   7   8
BRANCH   1  18
ATOM     18  O   UNL     1     -19.170  -7.083   6.426  0.00  0.00    +0.000 OA
BRANCH  18  21
ATOM     19  C   UNL     1     -16.301  -8.287   4.688  0.00  0.00    +0.000 C 
ATOM     20  O   UNL     1     -17.486  -7.383   4.863  0.00  0.00    +0.000 OA
ATOM     21  C   UNL     1     -18.127  -8.158   6.015  0.00  0.00    +0.000 C 
ATOM     22  C   UNL     1     -19.136  -8.898   4.821  0.00  0.00    +0.000 C 
ATOM     23  O   UNL     1     -19.821  -9.692   5.890  0.00  0.00    +0.000 OA
ATOM     24  C   UNL     1     -18.002 -10.154   4.617  0.00  0.00    +0.000 C 
ATOM     25  O   UNL     1     -18.801 -10.722   3.480  0.00  0.00    +0.000 OA
ATOM     26  C   UNL     1     -16.948  -9.372   3.516  0.00  0.00    +0.000 C 
ATOM     27  O   UNL     1     -17.933  -8.478   2.850  0.00  0.00    +0.000 OA
BRANCH  19  29
ATOM     28  O   UNL     1     -15.763  -6.214   4.078  0.00  0.00    +0.000 OA
ATOM     29  C   UNL     1     -15.677  -7.325   3.511  0.00  0.00    +0.000 C 
ENDBRANCH  19  29
ENDBRANCH  18  21
ENDBRANCH   1  18
TORSDOF 5
ENDMDL
MODEL 2
REMARK VINA RESULT:      -7.7     16.637     23.139
REMARK  Name = 
REMARK  5 active torsions:
REMARK  status: ('A' for Active; 'I' for Inactive)
REMARK    1  A    between atoms: C_2  and  C_3
REMARK    2  A    between atoms: C_5  and  O_6
REMARK    3  A    between atoms: O_6  and  C_7
REMARK    4  A    between atoms: C_13  and  C_14
REMARK    5  A    between atoms: C_15  and  C_16
REMARK                            x       y       z     vdW  Elec       q    Type
REMARK                         _______ _______ _______ _____ _____    ______ ____
ROOT
ATOM      1  C   UNL     1     -14.800  16.815   0.675  0.00  0.00    +0.000 A 
ATOM      2  C   UNL     1     -13.893  17.798   0.722  0.00  0.00    +0.000 A 
ATOM      3  C   UNL     1     -13.058  18.187   1.685  0.00  0.00    +0.000 A 
ATOM      4  O   UNL     1     -13.036  19.457   2.194  0.00  0.00    +0.000 OA
ATOM      5  C   UNL     1     -12.490  17.056   2.254  0.00  0.00    +0.000 A 
ATOM      6  C   UNL     1     -13.097  15.837   1.949  0.00  0.00    +0.000 A 
ATOM      7  C   UNL     1     -14.413  15.790   1.467  0.00  0.00    +0.000 A 
ENDROOT
BRANCH   7   8
ATOM      8  C   UNL     1     -15.199  14.555   1.451  0.00  0.00    +0.000 C 
ATOM      9  C   UNL     1     -15.098  13.554   2.250  0.00  0.00    +0.000 C 
BRANCH   9  10
ATOM     10  C   UNL     1     -14.229  12.389   2.264  0.00  0.00    +0.000 A 
ATOM     11  C   UNL     1     -14.899  11.197   2.556  0.00  0.00    +0.000 A 
ATOM     12  C   UNL     1     -14.302  10.073   3.038  0.00  0.00    +0.000 A 
ATOM     13  O   UNL     1     -15.082   8.954   3.350  0.00  0.00    +0.000 OA
ATOM     14  C   UNL     1     -12.992  10.142   3.445  0.00  0.00    +0.000 A 
ATOM     15  C   UNL     1     -12.384  11.380   3.495  0.00  0.00    +0.000 A 
ATOM     16  O   UNL     1     -11.020  11.356   3.801  0.00  0.00    +0.000 OA
ATOM     17  C   UNL     1     -12.927  12.404   2.765  0.00  0.00    +0.000 A 
ENDBRANCH   9  10
ENDBRANCH   7   8
BRANCH   1  18
ATOM     18  O   UNL     1     -15.742  16.755  -0.278  0.00  0.00    +0.000 OA
BRANCH  18  21
ATOM     19  C   UNL     1     -18.579  18.901  -0.481  0.00  0.00    +0.000 C 
ATOM     20  O   UNL     1     -17.910  17.560  -0.419  0.00  0.00    +0.000 OA
ATOM     21  C   UNL     1     -16.486  18.066  -0.654  0.00  0.00    +0.000 C 
ATOM     22  C   UNL     1     -16.716  17.638  -2.314  0.00  0.00    +0.000 C 
ATOM     23  O   UNL     1     -15.329  18.105  -2.628  0.00  0.00    +0.000 OA
ATOM     24  C   UNL     1     -17.317  19.197  -2.649  0.00  0.00    +0.000 C 
ATOM     25  O   UNL     1     -17.655  18.789  -4.054  0.00  0.00    +0.000 OA
ATOM     26  C   UNL     1     -18.942  18.956  -2.165  0.00  0.00    +0.000 C 
ATOM     27  O   UNL     1     -19.055  17.501  -2.454  0.00  0.00    +0.000 OA
BRANCH  19  29
ATOM     28  O   UNL     1     -19.797  17.725   0.965  0.00  0.00    +0.000 OA
ATOM     29  C   UNL     1     -20.046  18.241  -0.146  0.00  0.00    +0.000 C 
ENDBRANCH  19  29
ENDBRANCH  18  21
ENDBRANCH   1  18
TORSDOF 5
ENDMDL
MODEL 3
REMARK VINA RESULT:      -7.6      1.929      2.686
REMARK  Name = 
REMARK  5 active torsions:
REMARK  status: ('A' for Active; 'I' for Inactive)
REMARK    1  A    between atoms: C_2  and  C_3
REMARK    2  A    between atoms: C_5  and  O_6
REMARK    3  A    between atoms: O_6  and  C_7
REMARK    4  A    between atoms: C_13  and  C_14
REMARK    5  A    between atoms: C_15  and  C_16
REMARK                            x       y       z     vdW  Elec       q    Type
REMARK                         _______ _______ _______ _____ _____    ______ ____
ROOT
ATOM      1  C   UNL     1     -18.195  -8.921   8.020  0.00  0.00    +0.000 A 
ATOM      2  C   UNL     1     -17.806  -9.839   8.913  0.00  0.00    +0.000 A 
ATOM      3  C   UNL     1     -17.305  -9.722  10.143  0.00  0.00    +0.000 A 
ATOM      4  O   UNL     1     -16.101 -10.253  10.518  0.00  0.00    +0.000 OA
ATOM      5  C   UNL     1     -18.029  -8.751  10.818  0.00  0.00    +0.000 A 
ATOM      6  C   UNL     1     -18.853  -7.937  10.040  0.00  0.00    +0.000 A 
ATOM      7  C   UNL     1     -18.646  -7.818   8.658  0.00  0.00    +0.000 A 
ENDROOT
BRANCH   7   8
ATOM      8  C   UNL     1     -19.249  -6.745   7.864  0.00  0.00    +0.000 C 
ATOM      9  C   UNL     1     -18.652  -5.752   7.311  0.00  0.00    +0.000 C 
BRANCH   9  10
ATOM     10  C   UNL     1     -18.242  -4.449   7.807  0.00  0.00    +0.000 A 
ATOM     11  C   UNL     1     -19.176  -3.859   8.663  0.00  0.00    +0.000 A 
ATOM     12  C   UNL     1     -19.254  -2.525   8.921  0.00  0.00    +0.000 A 
ATOM     13  O   UNL     1     -20.270  -2.038   9.752  0.00  0.00    +0.000 OA
ATOM     14  C   UNL     1     -18.498  -1.661   8.169  0.00  0.00    +0.000 A 
ATOM     15  C   UNL     1     -17.812  -2.163   7.082  0.00  0.00    +0.000 A 
ATOM     16  O   UNL     1     -16.972  -1.248   6.439  0.00  0.00    +0.000 OA
ATOM     17  C   UNL     1     -17.562  -3.508   7.033  0.00  0.00    +0.000 A 
ENDBRANCH   9  10
ENDBRANCH   7   8
BRANCH   1  18
ATOM     18  O   UNL     1     -18.409  -9.223   6.731  0.00  0.00    +0.000 OA
BRANCH  18  21
ATOM     19  C   UNL     1     -15.829  -8.149   4.521  0.00  0.00    +0.000 C 
ATOM     20  O   UNL     1     -17.184  -8.046   5.155  0.00  0.00    +0.000 OA
ATOM     21  C   UNL     1     -17.173  -9.427   5.813  0.00  0.00    +0.000 C 
ATOM     22  C   UNL     1     -18.087  -9.972   4.449  0.00  0.00    +0.000 C 
ATOM     23  O   UNL     1     -18.129 -11.352   5.026  0.00  0.00    +0.000 OA
ATOM     24  C   UNL     1     -16.649 -10.362   3.622  0.00  0.00    +0.000 C 
ATOM     25  O   UNL     1     -17.428 -10.700   2.382  0.00  0.00    +0.000 OA
ATOM     26  C   UNL     1     -16.283  -8.811   2.996  0.00  0.00    +0.000 C 
ATOM     27  O   UNL     1     -17.666  -8.276   2.881  0.00  0.00    +0.000 OA
BRANCH  19  29
ATOM     28  O   UNL     1     -15.979  -5.981   5.006  0.00  0.00    +0.000 OA
ATOM     29  C   UNL     1     -15.932  -6.618   3.932  0.00  0.00    +0.000 C 
ENDBRANCH  19  29
ENDBRANCH  18  21
ENDBRANCH   1  18
TORSDOF 5
ENDMDL
MODEL 4
REMARK VINA RESULT:      -7.6      1.801      3.080
REMARK  Name = 
REMARK  5 active torsions:
REMARK  status: ('A' for Active; 'I' for Inactive)
REMARK    1  A    between atoms: C_2  and  C_3
REMARK    2  A    between atoms: C_5  and  O_6
REMARK    3  A    between atoms: O_6  and  C_7
REMARK    4  A    between atoms: C_13  and  C_14
REMARK    5  A    between atoms: C_15  and  C_16
REMARK                            x       y       z     vdW  Elec       q    Type
REMARK                         _______ _______ _______ _____ _____    ______ ____
ROOT
ATOM      1  C   UNL     1     -18.601  -5.510   7.785  0.00  0.00    +0.000 A 
ATOM      2  C   UNL     1     -19.495  -5.674   8.767  0.00  0.00    +0.000 A 
ATOM      3  C   UNL     1     -19.699  -5.002   9.900  0.00  0.00    +0.000 A 
ATOM      4  O   UNL     1     -19.677  -5.588  11.136  0.00  0.00    +0.000 OA
ATOM      5  C   UNL     1     -19.612  -3.645   9.624  0.00  0.00    +0.000 A 
ATOM      6  C   UNL     1     -19.058  -3.297   8.392  0.00  0.00    +0.000 A 
ATOM      7  C   UNL     1     -18.264  -4.205   7.678  0.00  0.00    +0.000 A 
ENDROOT
BRANCH   7   8
ATOM      8  C   UNL     1     -17.401  -3.791   6.570  0.00  0.00    +0.000 C 
ATOM      9  C   UNL     1     -16.614  -2.777   6.530  0.00  0.00    +0.000 C 
BRANCH   9  10
ATOM     10  C   UNL     1     -16.829  -1.376   6.202  0.00  0.00    +0.000 A 
ATOM     11  C   UNL     1     -15.706  -0.753   5.655  0.00  0.00    +0.000 A 
ATOM     12  C   UNL     1     -15.490   0.591   5.654  0.00  0.00    +0.000 A 
ATOM     13  O   UNL     1     -14.298   1.102   5.128  0.00  0.00    +0.000 OA
ATOM     14  C   UNL     1     -16.325   1.394   6.391  0.00  0.00    +0.000 A 
ATOM     15  C   UNL     1     -17.248   0.795   7.224  0.00  0.00    +0.000 A 
ATOM     16  O   UNL     1     -18.140   1.674   7.847  0.00  0.00    +0.000 OA
ATOM     17  C   UNL     1     -17.590  -0.510   6.987  0.00  0.00    +0.000 A 
ENDBRANCH   9  10
ENDBRANCH   7   8
BRANCH   1  18
ATOM     18  O   UNL     1     -18.370  -6.456   6.862  0.00  0.00    +0.000 OA
BRANCH  18  21
ATOM     19  C   UNL     1     -18.495  -9.708   8.315  0.00  0.00    +0.000 C 
ATOM     20  O   UNL     1     -17.785  -8.477   7.834  0.00  0.00    +0.000 OA
ATOM     21  C   UNL     1     -18.977  -7.867   7.094  0.00  0.00    +0.000 C 
ATOM     22  C   UNL     1     -18.307  -8.557   5.656  0.00  0.00    +0.000 C 
ATOM     23  O   UNL     1     -19.437  -7.989   4.856  0.00  0.00    +0.000 OA
ATOM     24  C   UNL     1     -19.203  -9.986   5.906  0.00  0.00    +0.000 C 
ATOM     25  O   UNL     1     -18.518 -10.645   4.743  0.00  0.00    +0.000 OA
ATOM     26  C   UNL     1     -18.142 -10.766   7.001  0.00  0.00    +0.000 C 
ATOM     27  O   UNL     1     -16.857 -10.181   6.534  0.00  0.00    +0.000 OA
BRANCH  19  29
ATOM     28  O   UNL     1     -17.713 -10.691  10.153  0.00  0.00    +0.000 OA
ATOM     29  C   UNL     1     -17.165 -10.217   9.134  0.00  0.00    +0.000 C 
ENDBRANCH  19  29
ENDBRANCH  18  21
ENDBRANCH   1  18
TORSDOF 5
ENDMDL
MODEL 5
REMARK VINA RESULT:      -7.4     15.673     19.719
REMARK  Name = 
REMARK  5 active torsions:
REMARK  status: ('A' for Active; 'I' for Inactive)
REMARK    1  A    between atoms: C_2  and  C_3
REMARK    2  A    between atoms: C_5  and  O_6
REMARK    3  A    between atoms: O_6  and  C_7
REMARK    4  A    between atoms: C_13  and  C_14
REMARK    5  A    between atoms: C_15  and  C_16
REMARK                            x       y       z     vdW  Elec       q    Type
REMARK                         _______ _______ _______ _____ _____    ______ ____
ROOT
ATOM      1  C   UNL     1     -23.950   8.960  -4.328  0.00  0.00    +0.000 A 
ATOM      2  C   UNL     1     -23.951  10.081  -3.596  0.00  0.00    +0.000 A 
ATOM      3  C   UNL     1     -23.731  11.353  -3.926  0.00  0.00    +0.000 A 
ATOM      4  O   UNL     1     -22.763  12.124  -3.341  0.00  0.00    +0.000 OA
ATOM      5  C   UNL     1     -24.397  11.619  -5.113  0.00  0.00    +0.000 A 
ATOM      6  C   UNL     1     -24.857  10.512  -5.828  0.00  0.00    +0.000 A 
ATOM      7  C   UNL     1     -24.322   9.236  -5.598  0.00  0.00    +0.000 A 
ENDROOT
BRANCH   7   8
ATOM      8  C   UNL     1     -24.520   8.123  -6.529  0.00  0.00    +0.000 C 
ATOM      9  C   UNL     1     -24.868   8.190  -7.764  0.00  0.00    +0.000 C 
BRANCH   9  10
ATOM     10  C   UNL     1     -26.163   8.287  -8.418  0.00  0.00    +0.000 A 
ATOM     11  C   UNL     1     -26.453   7.199  -9.245  0.00  0.00    +0.000 A 
ATOM     12  C   UNL     1     -27.354   7.222 -10.265  0.00  0.00    +0.000 A 
ATOM     13  O   UNL     1     -27.520   6.088 -11.068  0.00  0.00    +0.000 OA
ATOM     14  C   UNL     1     -27.893   8.426 -10.644  0.00  0.00    +0.000 A 
ATOM     15  C   UNL     1     -27.385   9.580 -10.082  0.00  0.00    +0.000 A 
ATOM     16  O   UNL     1     -28.065  10.753 -10.425  0.00  0.00    +0.000 OA
ATOM     17  C   UNL     1     -26.693   9.482  -8.904  0.00  0.00    +0.000 A 
ENDBRANCH   9  10
ENDBRANCH   7   8
BRANCH   1  18
ATOM     18  O   UNL     1     -23.917   7.741  -3.769  0.00  0.00    +0.000 OA
BRANCH  18  21
ATOM     19  C   UNL     1     -22.608   6.743  -0.609  0.00  0.00    +0.000 C 
ATOM     20  O   UNL     1     -22.813   6.592  -2.087  0.00  0.00    +0.000 OA
ATOM     21  C   UNL     1     -23.912   7.647  -2.219  0.00  0.00    +0.000 C 
ATOM     22  C   UNL     1     -25.038   6.336  -2.144  0.00  0.00    +0.000 C 
ATOM     23  O   UNL     1     -26.174   7.302  -2.276  0.00  0.00    +0.000 OA
ATOM     24  C   UNL     1     -25.115   6.478  -0.448  0.00  0.00    +0.000 C 
ATOM     25  O   UNL     1     -25.978   5.252  -0.361  0.00  0.00    +0.000 OA
ATOM     26  C   UNL     1     -23.727   5.557  -0.049  0.00  0.00    +0.000 C 
ATOM     27  O   UNL     1     -23.725   4.629  -1.211  0.00  0.00    +0.000 OA
BRANCH  19  29
ATOM     28  O   UNL     1     -20.443   6.375  -0.242  0.00  0.00    +0.000 OA
ATOM     29  C   UNL     1     -21.386   5.644  -0.614  0.00  0.00    +0.000 C 
ENDBRANCH  19  29
ENDBRANCH  18  21
ENDBRANCH   1  18
TORSDOF 5
ENDMDL
MODEL 6
REMARK VINA RESULT:      -7.2     19.756     21.219
REMARK  Name = 
REMARK  5 active torsions:
REMARK  status: ('A' for Active; 'I' for Inactive)
REMARK    1  A    between atoms: C_2  and  C_3
REMARK    2  A    between atoms: C_5  and  O_6
REMARK    3  A    between atoms: O_6  and  C_7
REMARK    4  A    between atoms: C_13  and  C_14
REMARK    5  A    between atoms: C_15  and  C_16
REMARK                            x       y       z     vdW  Elec       q    Type
REMARK                         _______ _______ _______ _____ _____    ______ ____
ROOT
ATOM      1  C   UNL     1     -34.497  -4.360  -5.863  0.00  0.00    +0.000 A 
ATOM      2  C   UNL     1     -34.591  -5.434  -6.656  0.00  0.00    +0.000 A 
ATOM      3  C   UNL     1     -35.639  -6.014  -7.241  0.00  0.00    +0.000 A 
ATOM      4  O   UNL     1     -35.974  -7.327  -7.051  0.00  0.00    +0.000 OA
ATOM      5  C   UNL     1     -36.448  -5.021  -7.771  0.00  0.00    +0.000 A 
ATOM      6  C   UNL     1     -36.192  -3.717  -7.344  0.00  0.00    +0.000 A 
ATOM      7  C   UNL     1     -35.475  -3.476  -6.163  0.00  0.00    +0.000 A 
ENDROOT
BRANCH   7   8
ATOM      8  C   UNL     1     -35.467  -2.169  -5.503  0.00  0.00    +0.000 C 
ATOM      9  C   UNL     1     -36.482  -1.478  -5.127  0.00  0.00    +0.000 C 
BRANCH   9  10
ATOM     10  C   UNL     1     -37.349  -0.541  -5.824  0.00  0.00    +0.000 A 
ATOM     11  C   UNL     1     -38.691  -0.929  -5.839  0.00  0.00    +0.000 A 
ATOM     12  C   UNL     1     -39.612  -0.493  -6.742  0.00  0.00    +0.000 A 
ATOM     13  O   UNL     1     -40.918  -0.994  -6.698  0.00  0.00    +0.000 OA
ATOM     14  C   UNL     1     -39.183   0.233  -7.826  0.00  0.00    +0.000 A 
ATOM     15  C   UNL     1     -37.825   0.356  -8.039  0.00  0.00    +0.000 A 
ATOM     16  O   UNL     1     -37.466   1.206  -9.089  0.00  0.00    +0.000 OA
ATOM     17  C   UNL     1     -36.977   0.134  -6.987  0.00  0.00    +0.000 A 
ENDBRANCH   9  10
ENDBRANCH   7   8
BRANCH   1  18
ATOM     18  O   UNL     1     -33.396  -4.094  -5.145  0.00  0.00    +0.000 OA
BRANCH  18  21
ATOM     19  C   UNL     1     -31.494  -6.786  -3.790  0.00  0.00    +0.000 C 
ATOM     20  O   UNL     1     -32.376  -5.577  -3.685  0.00  0.00    +0.000 OA
ATOM     21  C   UNL     1     -32.251  -5.144  -5.147  0.00  0.00    +0.000 C 
ATOM     22  C   UNL     1     -31.033  -4.040  -4.611  0.00  0.00    +0.000 C 
ATOM     23  O   UNL     1     -30.853  -3.554  -6.015  0.00  0.00    +0.000 OA
ATOM     24  C   UNL     1     -29.829  -5.219  -4.865  0.00  0.00    +0.000 C 
ATOM     25  O   UNL     1     -28.788  -4.318  -4.265  0.00  0.00    +0.000 OA
ATOM     26  C   UNL     1     -29.982  -6.065  -3.383  0.00  0.00    +0.000 C 
ATOM     27  O   UNL     1     -30.450  -4.945  -2.525  0.00  0.00    +0.000 OA
BRANCH  19  29
ATOM     28  O   UNL     1     -33.001  -7.400  -2.270  0.00  0.00    +0.000 OA
ATOM     29  C   UNL     1     -31.770  -7.186  -2.220  0.00  0.00    +0.000 C 
ENDBRANCH  19  29
ENDBRANCH  18  21
ENDBRANCH   1  18
TORSDOF 5
ENDMDL
MODEL 7
REMARK VINA RESULT:      -7.0     18.365     20.143
REMARK  Name = 
REMARK  5 active torsions:
REMARK  status: ('A' for Active; 'I' for Inactive)
REMARK    1  A    between atoms: C_2  and  C_3
REMARK    2  A    between atoms: C_5  and  O_6
REMARK    3  A    between atoms: O_6  and  C_7
REMARK    4  A    between atoms: C_13  and  C_14
REMARK    5  A    between atoms: C_15  and  C_16
REMARK                            x       y       z     vdW  Elec       q    Type
REMARK                         _______ _______ _______ _____ _____    ______ ____
ROOT
ATOM      1  C   UNL     1     -31.913  -6.091  -4.737  0.00  0.00    +0.000 A 
ATOM      2  C   UNL     1     -31.386  -6.471  -3.567  0.00  0.00    +0.000 A 
ATOM      3  C   UNL     1     -30.124  -6.667  -3.186  0.00  0.00    +0.000 A 
ATOM      4  O   UNL     1     -29.668  -7.850  -2.672  0.00  0.00    +0.000 OA
ATOM      5  C   UNL     1     -29.352  -5.627  -3.682  0.00  0.00    +0.000 A 
ATOM      6  C   UNL     1     -29.942  -4.830  -4.664  0.00  0.00    +0.000 A 
ATOM      7  C   UNL     1     -31.045  -5.291  -5.397  0.00  0.00    +0.000 A 
ENDROOT
BRANCH   7   8
ATOM      8  C   UNL     1     -31.485  -4.653  -6.639  0.00  0.00    +0.000 C 
ATOM      9  C   UNL     1     -32.205  -3.597  -6.762  0.00  0.00    +0.000 C 
BRANCH   9  10
ATOM     10  C   UNL     1     -33.642  -3.378  -6.751  0.00  0.00    +0.000 A 
ATOM     11  C   UNL     1     -34.133  -2.961  -5.511  0.00  0.00    +0.000 A 
ATOM     12  C   UNL     1     -35.427  -3.091  -5.108  0.00  0.00    +0.000 A 
ATOM     13  O   UNL     1     -35.795  -2.690  -3.819  0.00  0.00    +0.000 OA
ATOM     14  C   UNL     1     -36.286  -3.838  -5.875  0.00  0.00    +0.000 A 
ATOM     15  C   UNL     1     -35.768  -4.555  -6.935  0.00  0.00    +0.000 A 
ATOM     16  O   UNL     1     -36.718  -5.192  -7.738  0.00  0.00    +0.000 OA
ATOM     17  C   UNL     1     -34.550  -4.184  -7.439  0.00  0.00    +0.000 A 
ENDBRANCH   9  10
ENDBRANCH   7   8
BRANCH   1  18
ATOM     18  O   UNL     1     -33.220  -6.221  -5.009  0.00  0.00    +0.000 OA
BRANCH  18  21
ATOM     19  C   UNL     1     -35.125  -9.053  -6.033  0.00  0.00    +0.000 C 
ATOM     20  O   UNL     1     -34.752  -7.601  -6.067  0.00  0.00    +0.000 OA
ATOM     21  C   UNL     1     -33.871  -7.618  -4.817  0.00  0.00    +0.000 C 
ATOM     22  C   UNL     1     -35.251  -7.025  -3.960  0.00  0.00    +0.000 C 
ATOM     23  O   UNL     1     -34.457  -7.006  -2.692  0.00  0.00    +0.000 OA
ATOM     24  C   UNL     1     -35.748  -8.620  -3.624  0.00  0.00    +0.000 C 
ATOM     25  O   UNL     1     -37.021  -8.117  -3.006  0.00  0.00    +0.000 OA
ATOM     26  C   UNL     1     -36.565  -8.950  -5.092  0.00  0.00    +0.000 C 
ATOM     27  O   UNL     1     -36.999  -7.568  -5.431  0.00  0.00    +0.000 OA
BRANCH  19  29
ATOM     28  O   UNL     1     -35.400  -9.787  -8.117  0.00  0.00    +0.000 OA
ATOM     29  C   UNL     1     -35.981  -8.919  -7.430  0.00  0.00    +0.000 C 
ENDBRANCH  19  29
ENDBRANCH  18  21
ENDBRANCH   1  18
TORSDOF 5
ENDMDL
MODEL 8
REMARK VINA RESULT:      -6.9     15.595     19.228
REMARK  Name = 
REMARK  5 active torsions:
REMARK  status: ('A' for Active; 'I' for Inactive)
REMARK    1  A    between atoms: C_2  and  C_3
REMARK    2  A    between atoms: C_5  and  O_6
REMARK    3  A    between atoms: O_6  and  C_7
REMARK    4  A    between atoms: C_13  and  C_14
REMARK    5  A    between atoms: C_15  and  C_16
REMARK                            x       y       z     vdW  Elec       q    Type
REMARK                         _______ _______ _______ _____ _____    ______ ____
ROOT
ATOM      1  C   UNL     1      -1.680   0.416   7.565  0.00  0.00    +0.000 A 
ATOM      2  C   UNL     1      -2.760  -0.325   7.289  0.00  0.00    +0.000 A 
ATOM      3  C   UNL     1      -3.629  -0.282   6.279  0.00  0.00    +0.000 A 
ATOM      4  O   UNL     1      -4.978  -0.125   6.454  0.00  0.00    +0.000 OA
ATOM      5  C   UNL     1      -2.921  -0.106   5.100  0.00  0.00    +0.000 A 
ATOM      6  C   UNL     1      -1.586   0.279   5.230  0.00  0.00    +0.000 A 
ATOM      7  C   UNL     1      -1.117   0.858   6.418  0.00  0.00    +0.000 A 
ENDROOT
BRANCH   7   8
ATOM      8  C   UNL     1       0.158   1.574   6.493  0.00  0.00    +0.000 C 
ATOM      9  C   UNL     1       0.338   2.831   6.686  0.00  0.00    +0.000 C 
BRANCH   9  10
ATOM     10  C   UNL     1       0.342   3.974   5.787  0.00  0.00    +0.000 A 
ATOM     11  C   UNL     1      -0.327   5.088   6.299  0.00  0.00    +0.000 A 
ATOM     12  C   UNL     1      -0.831   6.102   5.543  0.00  0.00    +0.000 A 
ATOM     13  O   UNL     1      -1.536   7.142   6.160  0.00  0.00    +0.000 OA
ATOM     14  C   UNL     1      -0.857   5.959   4.178  0.00  0.00    +0.000 A 
ATOM     15  C   UNL     1      -0.518   4.735   3.639  0.00  0.00    +0.000 A 
ATOM     16  O   UNL     1      -0.452   4.702   2.242  0.00  0.00    +0.000 OA
ATOM     17  C   UNL     1       0.215   3.866   4.402  0.00  0.00    +0.000 A 
ENDBRANCH   9  10
ENDBRANCH   7   8
BRANCH   1  18
ATOM     18  O   UNL     1      -1.095   0.404   8.771  0.00  0.00    +0.000 OA
BRANCH  18  21
ATOM     19  C   UNL     1      -1.733   3.140  10.963  0.00  0.00    +0.000 C 
ATOM     20  O   UNL     1      -0.863   2.315  10.061  0.00  0.00    +0.000 OA
ATOM     21  C   UNL     1      -1.817   1.125   9.942  0.00  0.00    +0.000 C 
ATOM     22  C   UNL     1      -0.875   0.376  11.185  0.00  0.00    +0.000 C 
ATOM     23  O   UNL     1      -1.757  -0.832  11.127  0.00  0.00    +0.000 OA
ATOM     24  C   UNL     1      -1.882   1.055  12.380  0.00  0.00    +0.000 C 
ATOM     25  O   UNL     1      -0.987   0.529  13.465  0.00  0.00    +0.000 OA
ATOM     26  C   UNL     1      -1.147   2.597  12.490  0.00  0.00    +0.000 C 
ATOM     27  O   UNL     1       0.241   2.219  12.117  0.00  0.00    +0.000 OA
BRANCH  19  29
ATOM     28  O   UNL     1      -0.665   4.653   9.727  0.00  0.00    +0.000 OA
ATOM     29  C   UNL     1      -0.657   4.383  10.947  0.00  0.00    +0.000 C 
ENDBRANCH  19  29
ENDBRANCH  18  21
ENDBRANCH   1  18
TORSDOF 5
ENDMDL
MODEL 9
REMARK VINA RESULT:      -6.9     18.705     21.944
REMARK  Name = 
REMARK  5 active torsions:
REMARK  status: ('A' for Active; 'I' for Inactive)
REMARK    1  A    between atoms: C_2  and  C_3
REMARK    2  A    between atoms: C_5  and  O_6
REMARK    3  A    between atoms: O_6  and  C_7
REMARK    4  A    between atoms: C_13  and  C_14
REMARK    5  A    between atoms: C_15  and  C_16
REMARK                            x       y       z     vdW  Elec       q    Type
REMARK                         _______ _______ _______ _____ _____    ______ ____
ROOT
ATOM      1  C   UNL     1     -28.591   8.579  -7.251  0.00  0.00    +0.000 A 
ATOM      2  C   UNL     1     -29.713   8.760  -6.543  0.00  0.00    +0.000 A 
ATOM      3  C   UNL     1     -30.005   8.509  -5.268  0.00  0.00    +0.000 A 
ATOM      4  O   UNL     1     -31.041   7.703  -4.879  0.00  0.00    +0.000 OA
ATOM      5  C   UNL     1     -28.938   8.921  -4.485  0.00  0.00    +0.000 A 
ATOM      6  C   UNL     1     -27.745   9.195  -5.157  0.00  0.00    +0.000 A 
ATOM      7  C   UNL     1     -27.512   8.687  -6.443  0.00  0.00    +0.000 A 
ENDROOT
BRANCH   7   8
ATOM      8  C   UNL     1     -26.179   8.659  -7.046  0.00  0.00    +0.000 C 
ATOM      9  C   UNL     1     -25.151   8.006  -6.639  0.00  0.00    +0.000 C 
BRANCH   9  10
ATOM     10  C   UNL     1     -24.129   8.296  -5.646  0.00  0.00    +0.000 A 
ATOM     11  C   UNL     1     -24.289   7.582  -4.456  0.00  0.00    +0.000 A 
ATOM     12  C   UNL     1     -23.762   7.952  -3.256  0.00  0.00    +0.000 A 
ATOM     13  O   UNL     1     -24.037   7.190  -2.115  0.00  0.00    +0.000 OA
ATOM     14  C   UNL     1     -23.187   9.193  -3.141  0.00  0.00    +0.000 A 
ATOM     15  C   UNL     1     -23.304  10.073  -4.198  0.00  0.00    +0.000 A 
ATOM     16  O   UNL     1     -22.591  11.267  -4.055  0.00  0.00    +0.000 OA
ATOM     17  C   UNL     1     -23.597   9.568  -5.437  0.00  0.00    +0.000 A 
ENDBRANCH   9  10
ENDBRANCH   7   8
BRANCH   1  18
ATOM     18  O   UNL     1     -28.574   8.631  -8.591  0.00  0.00    +0.000 OA
BRANCH  18  21
ATOM     19  C   UNL     1     -29.723   5.834 -10.476  0.00  0.00    +0.000 C 
ATOM     20  O   UNL     1     -28.673   6.791  -9.996  0.00  0.00    +0.000 OA
ATOM     21  C   UNL     1     -29.633   7.802  -9.368  0.00  0.00    +0.000 C 
ATOM     22  C   UNL     1     -29.482   8.704 -10.837  0.00  0.00    +0.000 C 
ATOM     23  O   UNL     1     -30.410   9.745 -10.295  0.00  0.00    +0.000 OA
ATOM     24  C   UNL     1     -30.808   7.869 -11.505  0.00  0.00    +0.000 C 
ATOM     25  O   UNL     1     -30.593   8.542 -12.830  0.00  0.00    +0.000 OA
ATOM     26  C   UNL     1     -29.983   6.473 -12.055  0.00  0.00    +0.000 C 
ATOM     27  O   UNL     1     -28.650   7.079 -12.313  0.00  0.00    +0.000 OA
BRANCH  19  29
ATOM     28  O   UNL     1     -28.725   3.860 -10.220  0.00  0.00    +0.000 OA
ATOM     29  C   UNL     1     -28.586   4.791 -11.042  0.00  0.00    +0.000 C 
ENDBRANCH  19  29
ENDBRANCH  18  21
ENDBRANCH   1  18
TORSDOF 5
ENDMDL
MODEL 10
REMARK VINA RESULT:      -6.9     18.725     20.420
REMARK  Name = 
REMARK  5 active torsions:
REMARK  status: ('A' for Active; 'I' for Inactive)
REMARK    1  A    between atoms: C_2  and  C_3
REMARK    2  A    between atoms: C_5  and  O_6
REMARK    3  A    between atoms: O_6  and  C_7
REMARK    4  A    between atoms: C_13  and  C_14
REMARK    5  A    between atoms: C_15  and  C_16
REMARK                            x       y       z     vdW  Elec       q    Type
REMARK                         _______ _______ _______ _____ _____    ______ ____
ROOT
ATOM      1  C   UNL     1     -32.117  -6.100  -4.567  0.00  0.00    +0.000 A 
ATOM      2  C   UNL     1     -31.360  -6.490  -3.534  0.00  0.00    +0.000 A 
ATOM      3  C   UNL     1     -30.045  -6.673  -3.419  0.00  0.00    +0.000 A 
ATOM      4  O   UNL     1     -29.482  -7.857  -3.029  0.00  0.00    +0.000 OA
ATOM      5  C   UNL     1     -29.401  -5.615  -4.043  0.00  0.00    +0.000 A 
ATOM      6  C   UNL     1     -30.186  -4.812  -4.872  0.00  0.00    +0.000 A 
ATOM      7  C   UNL     1     -31.409  -5.279  -5.375  0.00  0.00    +0.000 A 
ENDROOT
BRANCH   7   8
ATOM      8  C   UNL     1     -32.097  -4.629  -6.492  0.00  0.00    +0.000 C 
ATOM      9  C   UNL     1     -32.885  -3.615  -6.441  0.00  0.00    +0.000 C 
BRANCH   9  10
ATOM     10  C   UNL     1     -34.307  -3.485  -6.167  0.00  0.00    +0.000 A 
ATOM     11  C   UNL     1     -35.117  -4.118  -7.112  0.00  0.00    +0.000 A 
ATOM     12  C   UNL     1     -36.424  -3.812  -7.339  0.00  0.00    +0.000 A 
ATOM     13  O   UNL     1     -37.124  -4.473  -8.355  0.00  0.00    +0.000 OA
ATOM     14  C   UNL     1     -36.954  -2.695  -6.743  0.00  0.00    +0.000 A 
ATOM     15  C   UNL     1     -36.104  -1.843  -6.068  0.00  0.00    +0.000 A 
ATOM     16  O   UNL     1     -36.733  -0.796  -5.388  0.00  0.00    +0.000 OA
ATOM     17  C   UNL     1     -34.890  -2.325  -5.656  0.00  0.00    +0.000 A 
ENDBRANCH   9  10
ENDBRANCH   7   8
BRANCH   1  18
ATOM     18  O   UNL     1     -33.450  -6.246  -4.573  0.00  0.00    +0.000 OA
BRANCH  18  21
ATOM     19  C   UNL     1     -35.367  -8.741  -6.245  0.00  0.00    +0.000 C 
ATOM     20  O   UNL     1     -35.048  -7.328  -5.855  0.00  0.00    +0.000 OA
ATOM     21  C   UNL     1     -34.029  -7.673  -4.768  0.00  0.00    +0.000 C 
ATOM     22  C   UNL     1     -35.321  -7.469  -3.636  0.00  0.00    +0.000 C 
ATOM     23  O   UNL     1     -34.388  -7.790  -2.511  0.00  0.00    +0.000 OA
ATOM     24  C   UNL     1     -35.724  -9.118  -3.772  0.00  0.00    +0.000 C 
ATOM     25  O   UNL     1     -36.934  -8.918  -2.905  0.00  0.00    +0.000 OA
ATOM     26  C   UNL     1     -36.693  -9.031  -5.182  0.00  0.00    +0.000 C 
ATOM     27  O   UNL     1     -37.207  -7.644  -5.023  0.00  0.00    +0.000 OA
BRANCH  19  29
ATOM     28  O   UNL     1     -35.609  -7.483  -8.065  0.00  0.00    +0.000 OA
ATOM     29  C   UNL     1     -36.381  -8.238  -7.436  0.00  0.00    +0.000 C 
ENDBRANCH  19  29
ENDBRANCH  18  21
ENDBRANCH   1  18
TORSDOF 5
ENDMDL
