MODEL 1
REMARK VINA RESULT:      -6.4      0.000      0.000
REMARK  Name = 
REMARK  7 active torsions:
REMARK  status: ('A' for Active; 'I' for Inactive)
REMARK    1  A    between atoms: C_2  and  O_4
REMARK    2  A    between atoms: O_4  and  C_5
REMARK    3  A    between atoms: C_8  and  C_9
REMARK    4  A    between atoms: C_10  and  C_11
REMARK    5  A    between atoms: C_10  and  C_13
REMARK    6  A    between atoms: C_22  and  O_23
REMARK    7  A    between atoms: O_23  and  C_24
REMARK                            x       y       z     vdW  Elec       q    Type
REMARK                         _______ _______ _______ _____ _____    ______ ____
ROOT
ATOM      1  C   UNL     1     -30.501  -5.753  -3.970  0.00  0.00    +0.000 A 
ATOM      2  C   UNL     1     -30.761  -6.815  -3.125  0.00  0.00    +0.000 A 
ATOM      3  C   UNL     1     -32.087  -7.209  -3.043  0.00  0.00    +0.000 A 
ATOM      4  C   UNL     1     -33.113  -6.372  -3.468  0.00  0.00    +0.000 A 
ATOM      5  C   UNL     1     -32.764  -5.043  -3.598  0.00  0.00    +0.000 A 
ATOM      6  C   UNL     1     -31.478  -4.773  -4.046  0.00  0.00    +0.000 A 
ENDROOT
BRANCH   4   7
ATOM      7  C   UNL     1     -34.431  -6.724  -2.919  0.00  0.00    +0.000 C 
ATOM      8  C   UNL     1     -35.000  -7.797  -3.471  0.00  0.00    +0.000 C 
BRANCH   8   9
ATOM      9  C   UNL     1     -35.186  -7.679  -4.922  0.00  0.00    +0.000 A 
ATOM     10  C   UNL     1     -36.216  -6.822  -5.295  0.00  0.00    +0.000 A 
ATOM     11  C   UNL     1     -36.760  -6.797  -6.551  0.00  0.00    +0.000 A 
ATOM     12  C   UNL     1     -36.139  -7.595  -7.503  0.00  0.00    +0.000 A 
ATOM     13  C   UNL     1     -35.453  -8.718  -7.061  0.00  0.00    +0.000 A 
ATOM     14  C   UNL     1     -34.906  -8.718  -5.790  0.00  0.00    +0.000 A 
ATOM     15  O   UNL     1     -35.504  -9.631  -8.118  0.00  0.00    +0.000 OA
ATOM     16  C   UNL     1     -35.570  -8.827  -9.293  0.00  0.00    +0.000 C 
ATOM     17  O   UNL     1     -36.165  -7.613  -8.884  0.00  0.00    +0.000 OA
ENDBRANCH   8   9
BRANCH   8  18
ATOM     18  C   UNL     1     -35.783  -8.730  -2.693  0.00  0.00    +0.000 C 
ATOM     19  N   UNL     1     -36.501  -9.491  -2.183  0.00  0.00    +0.000 NA
ENDBRANCH   8  18
ENDBRANCH   4   7
BRANCH   1  20
ATOM     20  O   UNL     1     -29.244  -5.478  -4.478  0.00  0.00    +0.000 OA
BRANCH  20  22
ATOM     21  C   UNL     1     -29.025  -4.280  -6.491  0.00  0.00    +0.000 C 
ATOM     22  C   UNL     1     -29.010  -4.187  -4.991  0.00  0.00    +0.000 C 
ATOM     23  C   UNL     1     -27.747  -3.558  -4.476  0.00  0.00    +0.000 C 
ENDBRANCH  20  22
ENDBRANCH   1  20
BRANCH   5  24
ATOM     24  O   UNL     1     -33.673  -4.001  -3.390  0.00  0.00    +0.000 OA
BRANCH  24  25
ATOM     25  C   UNL     1     -34.449  -3.616  -4.490  0.00  0.00    +0.000 C 
ATOM     26  C   UNL     1     -33.815  -2.579  -5.364  0.00  0.00    +0.000 C 
ATOM     27  C   UNL     1     -35.891  -3.379  -4.184  0.00  0.00    +0.000 C 
ENDBRANCH  24  25
ENDBRANCH   5  24
TORSDOF 7
ENDMDL
MODEL 2
REMARK VINA RESULT:      -6.0     13.517     16.763
REMARK  Name = 
REMARK  7 active torsions:
REMARK  status: ('A' for Active; 'I' for Inactive)
REMARK    1  A    between atoms: C_2  and  O_4
REMARK    2  A    between atoms: O_4  and  C_5
REMARK    3  A    between atoms: C_8  and  C_9
REMARK    4  A    between atoms: C_10  and  C_11
REMARK    5  A    between atoms: C_10  and  C_13
REMARK    6  A    between atoms: C_22  and  O_23
REMARK    7  A    between atoms: O_23  and  C_24
REMARK                            x       y       z     vdW  Elec       q    Type
REMARK                         _______ _______ _______ _____ _____    ______ ____
ROOT
ATOM      1  C   UNL     1     -25.824   7.817  -7.285  0.00  0.00    +0.000 A 
ATOM      2  C   UNL     1     -24.575   8.394  -7.149  0.00  0.00    +0.000 A 
ATOM      3  C   UNL     1     -24.113   8.530  -5.850  0.00  0.00    +0.000 A 
ATOM      4  C   UNL     1     -24.980   8.451  -4.766  0.00  0.00    +0.000 A 
ATOM      5  C   UNL     1     -26.316   8.619  -5.075  0.00  0.00    +0.000 A 
ATOM      6  C   UNL     1     -26.747   8.104  -6.292  0.00  0.00    +0.000 A 
ENDROOT
BRANCH   4   7
ATOM      7  C   UNL     1     -24.443   9.044  -3.533  0.00  0.00    +0.000 C 
ATOM      8  C   UNL     1     -23.873   8.178  -2.696  0.00  0.00    +0.000 C 
BRANCH   8   9
ATOM      9  C   UNL     1     -24.773   7.101  -2.265  0.00  0.00    +0.000 A 
ATOM     10  C   UNL     1     -25.534   7.410  -1.143  0.00  0.00    +0.000 A 
ATOM     11  C   UNL     1     -26.197   6.473  -0.398  0.00  0.00    +0.000 A 
ATOM     12  C   UNL     1     -26.184   5.175  -0.896  0.00  0.00    +0.000 A 
ATOM     13  C   UNL     1     -25.120   4.801  -1.704  0.00  0.00    +0.000 A 
ATOM     14  C   UNL     1     -24.469   5.765  -2.453  0.00  0.00    +0.000 A 
ATOM     15  O   UNL     1     -24.980   3.422  -1.528  0.00  0.00    +0.000 OA
ATOM     16  C   UNL     1     -26.293   2.957  -1.225  0.00  0.00    +0.000 C 
ATOM     17  O   UNL     1     -26.957   4.059  -0.642  0.00  0.00    +0.000 OA
ENDBRANCH   8   9
BRANCH   8  18
ATOM     18  C   UNL     1     -22.701   8.523  -1.922  0.00  0.00    +0.000 C 
ATOM     19  N   UNL     1     -21.792   8.939  -1.326  0.00  0.00    +0.000 NA
ENDBRANCH   8  18
ENDBRANCH   4   7
BRANCH   1  20
ATOM     20  O   UNL     1     -26.274   7.250  -8.464  0.00  0.00    +0.000 OA
BRANCH  20  22
ATOM     21  C   UNL     1     -26.903   9.074  -9.810  0.00  0.00    +0.000 C 
ATOM     22  C   UNL     1     -25.966   7.908  -9.670  0.00  0.00    +0.000 C 
ATOM     23  C   UNL     1     -26.001   7.006 -10.870  0.00  0.00    +0.000 C 
ENDBRANCH  20  22
ENDBRANCH   1  20
BRANCH   5  24
ATOM     24  O   UNL     1     -27.230   9.185  -4.184  0.00  0.00    +0.000 OA
BRANCH  24  25
ATOM     25  C   UNL     1     -28.474   8.552  -4.073  0.00  0.00    +0.000 C 
ATOM     26  C   UNL     1     -29.599   9.460  -3.680  0.00  0.00    +0.000 C 
ATOM     27  C   UNL     1     -28.448   7.244  -3.355  0.00  0.00    +0.000 C 
ENDBRANCH  24  25
ENDBRANCH   5  24
TORSDOF 7
ENDMDL
MODEL 3
REMARK VINA RESULT:      -6.0      1.542      2.066
REMARK  Name = 
REMARK  7 active torsions:
REMARK  status: ('A' for Active; 'I' for Inactive)
REMARK    1  A    between atoms: C_2  and  O_4
REMARK    2  A    between atoms: O_4  and  C_5
REMARK    3  A    between atoms: C_8  and  C_9
REMARK    4  A    between atoms: C_10  and  C_11
REMARK    5  A    between atoms: C_10  and  C_13
REMARK    6  A    between atoms: C_22  and  O_23
REMARK    7  A    between atoms: O_23  and  C_24
REMARK                            x       y       z     vdW  Elec       q    Type
REMARK                         _______ _______ _______ _____ _____    ______ ____
ROOT
ATOM      1  C   UNL     1     -32.060  -3.715  -4.697  0.00  0.00    +0.000 A 
ATOM      2  C   UNL     1     -32.319  -4.170  -3.418  0.00  0.00    +0.000 A 
ATOM      3  C   UNL     1     -33.460  -4.942  -3.273  0.00  0.00    +0.000 A 
ATOM      4  C   UNL     1     -34.459  -4.938  -4.242  0.00  0.00    +0.000 A 
ATOM      5  C   UNL     1     -34.419  -3.868  -5.114  0.00  0.00    +0.000 A 
ATOM      6  C   UNL     1     -33.162  -3.399  -5.474  0.00  0.00    +0.000 A 
ENDROOT
BRANCH   4   7
ATOM      7  C   UNL     1     -35.757  -5.428  -3.757  0.00  0.00    +0.000 C 
ATOM      8  C   UNL     1     -36.035  -6.692  -4.080  0.00  0.00    +0.000 C 
BRANCH   8   9
ATOM      9  C   UNL     1     -36.024  -6.942  -5.527  0.00  0.00    +0.000 A 
ATOM     10  C   UNL     1     -37.144  -6.459  -6.195  0.00  0.00    +0.000 A 
ATOM     11  C   UNL     1     -37.488  -6.840  -7.464  0.00  0.00    +0.000 A 
ATOM     12  C   UNL     1     -36.579  -7.655  -8.127  0.00  0.00    +0.000 A 
ATOM     13  C   UNL     1     -35.747  -8.457  -7.358  0.00  0.00    +0.000 A 
ATOM     14  C   UNL     1     -35.407  -8.048  -6.080  0.00  0.00    +0.000 A 
ATOM     15  O   UNL     1     -35.447  -9.564  -8.156  0.00  0.00    +0.000 OA
ATOM     16  C   UNL     1     -35.506  -9.076  -9.495  0.00  0.00    +0.000 C 
ATOM     17  O   UNL     1     -36.396  -7.980  -9.456  0.00  0.00    +0.000 OA
ENDBRANCH   8   9
BRANCH   8  18
ATOM     18  C   UNL     1     -36.742  -7.572  -3.177  0.00  0.00    +0.000 C 
ATOM     19  N   UNL     1     -37.182  -8.341  -2.422  0.00  0.00    +0.000 NA
ENDBRANCH   8  18
ENDBRANCH   4   7
BRANCH   1  20
ATOM     20  O   UNL     1     -30.811  -3.285  -5.110  0.00  0.00    +0.000 OA
BRANCH  20  22
ATOM     21  C   UNL     1     -28.746  -4.182  -4.431  0.00  0.00    +0.000 C 
ATOM     22  C   UNL     1     -29.854  -4.263  -5.442  0.00  0.00    +0.000 C 
ATOM     23  C   UNL     1     -29.346  -4.150  -6.850  0.00  0.00    +0.000 C 
ENDBRANCH  20  22
ENDBRANCH   1  20
BRANCH   5  24
ATOM     24  O   UNL     1     -35.568  -3.330  -5.699  0.00  0.00    +0.000 OA
BRANCH  24  25
ATOM     25  C   UNL     1     -35.889  -2.011  -5.357  0.00  0.00    +0.000 C 
ATOM     26  C   UNL     1     -36.466  -1.851  -3.984  0.00  0.00    +0.000 C 
ATOM     27  C   UNL     1     -36.594  -1.242  -6.424  0.00  0.00    +0.000 C 
ENDBRANCH  24  25
ENDBRANCH   5  24
TORSDOF 7
ENDMDL
MODEL 4
REMARK VINA RESULT:      -6.0     12.905     17.342
REMARK  Name = 
REMARK  7 active torsions:
REMARK  status: ('A' for Active; 'I' for Inactive)
REMARK    1  A    between atoms: C_2  and  O_4
REMARK    2  A    between atoms: O_4  and  C_5
REMARK    3  A    between atoms: C_8  and  C_9
REMARK    4  A    between atoms: C_10  and  C_11
REMARK    5  A    between atoms: C_10  and  C_13
REMARK    6  A    between atoms: C_22  and  O_23
REMARK    7  A    between atoms: O_23  and  C_24
REMARK                            x       y       z     vdW  Elec       q    Type
REMARK                         _______ _______ _______ _____ _____    ______ ____
ROOT
ATOM      1  C   UNL     1     -26.822   6.243   1.864  0.00  0.00    +0.000 A 
ATOM      2  C   UNL     1     -25.599   6.199   2.507  0.00  0.00    +0.000 A 
ATOM      3  C   UNL     1     -24.487   6.131   1.682  0.00  0.00    +0.000 A 
ATOM      4  C   UNL     1     -24.603   5.752   0.349  0.00  0.00    +0.000 A 
ATOM      5  C   UNL     1     -25.778   5.100   0.028  0.00  0.00    +0.000 A 
ATOM      6  C   UNL     1     -26.926   5.518   0.688  0.00  0.00    +0.000 A 
ENDROOT
BRANCH   4   7
ATOM      7  C   UNL     1     -23.339   5.303  -0.252  0.00  0.00    +0.000 C 
ATOM      8  C   UNL     1     -22.506   6.282  -0.604  0.00  0.00    +0.000 C 
BRANCH   8   9
ATOM      9  C   UNL     1     -23.089   7.233  -1.558  0.00  0.00    +0.000 A 
ATOM     10  C   UNL     1     -23.640   6.638  -2.688  0.00  0.00    +0.000 A 
ATOM     11  C   UNL     1     -23.955   7.328  -3.828  0.00  0.00    +0.000 A 
ATOM     12  C   UNL     1     -23.817   8.709  -3.764  0.00  0.00    +0.000 A 
ATOM     13  C   UNL     1     -22.897   9.228  -2.864  0.00  0.00    +0.000 A 
ATOM     14  C   UNL     1     -22.600   8.516  -1.716  0.00  0.00    +0.000 A 
ATOM     15  O   UNL     1     -22.481  10.446  -3.410  0.00  0.00    +0.000 OA
ATOM     16  C   UNL     1     -23.597  10.907  -4.168  0.00  0.00    +0.000 C 
ATOM     17  O   UNL     1     -24.308   9.743  -4.536  0.00  0.00    +0.000 OA
ENDBRANCH   8   9
BRANCH   8  18
ATOM     18  C   UNL     1     -21.073   6.151  -0.465  0.00  0.00    +0.000 C 
ATOM     19  N   UNL     1     -19.946   5.914  -0.298  0.00  0.00    +0.000 NA
ENDBRANCH   8  18
ENDBRANCH   4   7
BRANCH   1  20
ATOM     20  O   UNL     1     -27.980   6.698   2.468  0.00  0.00    +0.000 OA
BRANCH  20  22
ATOM     21  C   UNL     1     -30.332   6.668   2.474  0.00  0.00    +0.000 C 
ATOM     22  C   UNL     1     -29.087   5.828   2.509  0.00  0.00    +0.000 C 
ATOM     23  C   UNL     1     -29.069   4.890   3.681  0.00  0.00    +0.000 C 
ENDBRANCH  20  22
ENDBRANCH   1  20
BRANCH   5  24
ATOM     24  O   UNL     1     -25.852   4.133  -0.977  0.00  0.00    +0.000 OA
BRANCH  24  25
ATOM     25  C   UNL     1     -25.925   2.798  -0.561  0.00  0.00    +0.000 C 
ATOM     26  C   UNL     1     -24.894   1.901  -1.173  0.00  0.00    +0.000 C 
ATOM     27  C   UNL     1     -27.305   2.230  -0.525  0.00  0.00    +0.000 C 
ENDBRANCH  24  25
ENDBRANCH   5  24
TORSDOF 7
ENDMDL
MODEL 5
REMARK VINA RESULT:      -5.8      2.350      6.979
REMARK  Name = 
REMARK  7 active torsions:
REMARK  status: ('A' for Active; 'I' for Inactive)
REMARK    1  A    between atoms: C_2  and  O_4
REMARK    2  A    between atoms: O_4  and  C_5
REMARK    3  A    between atoms: C_8  and  C_9
REMARK    4  A    between atoms: C_10  and  C_11
REMARK    5  A    between atoms: C_10  and  C_13
REMARK    6  A    between atoms: C_22  and  O_23
REMARK    7  A    between atoms: O_23  and  C_24
REMARK                            x       y       z     vdW  Elec       q    Type
REMARK                         _______ _______ _______ _____ _____    ______ ____
ROOT
ATOM      1  C   UNL     1     -36.053  -7.172  -8.432  0.00  0.00    +0.000 A 
ATOM      2  C   UNL     1     -36.678  -5.944  -8.539  0.00  0.00    +0.000 A 
ATOM      3  C   UNL     1     -36.520  -5.092  -7.458  0.00  0.00    +0.000 A 
ATOM      4  C   UNL     1     -36.101  -5.570  -6.221  0.00  0.00    +0.000 A 
ATOM      5  C   UNL     1     -36.230  -6.934  -6.049  0.00  0.00    +0.000 A 
ATOM      6  C   UNL     1     -36.004  -7.730  -7.165  0.00  0.00    +0.000 A 
ENDROOT
BRANCH   4   7
ATOM      7  C   UNL     1     -36.407  -4.668  -5.102  0.00  0.00    +0.000 C 
ATOM      8  C   UNL     1     -35.590  -3.621  -4.985  0.00  0.00    +0.000 C 
BRANCH   8   9
ATOM      9  C   UNL     1     -34.179  -3.996  -4.825  0.00  0.00    +0.000 A 
ATOM     10  C   UNL     1     -33.818  -4.305  -3.519  0.00  0.00    +0.000 A 
ATOM     11  C   UNL     1     -32.519  -4.379  -3.091  0.00  0.00    +0.000 A 
ATOM     12  C   UNL     1     -31.544  -4.254  -4.074  0.00  0.00    +0.000 A 
ATOM     13  C   UNL     1     -31.864  -3.537  -5.218  0.00  0.00    +0.000 A 
ATOM     14  C   UNL     1     -33.183  -3.482  -5.634  0.00  0.00    +0.000 A 
ATOM     15  O   UNL     1     -30.655  -3.016  -5.686  0.00  0.00    +0.000 OA
ATOM     16  C   UNL     1     -29.666  -3.953  -5.267  0.00  0.00    +0.000 C 
ATOM     17  O   UNL     1     -30.202  -4.575  -4.118  0.00  0.00    +0.000 OA
ENDBRANCH   8   9
BRANCH   8  18
ATOM     18  C   UNL     1     -36.067  -2.323  -4.565  0.00  0.00    +0.000 C 
ATOM     19  N   UNL     1     -36.311  -1.242  -4.209  0.00  0.00    +0.000 NA
ENDBRANCH   8  18
ENDBRANCH   4   7
BRANCH   1  20
ATOM     20  O   UNL     1     -35.766  -7.975  -9.521  0.00  0.00    +0.000 OA
BRANCH  20  22
ATOM     21  C   UNL     1     -37.364  -8.288 -11.218  0.00  0.00    +0.000 C 
ATOM     22  C   UNL     1     -36.146  -7.515 -10.797  0.00  0.00    +0.000 C 
ATOM     23  C   UNL     1     -35.046  -7.592 -11.815  0.00  0.00    +0.000 C 
ENDBRANCH  20  22
ENDBRANCH   1  20
BRANCH   5  24
ATOM     24  O   UNL     1     -36.478  -7.517  -4.804  0.00  0.00    +0.000 OA
BRANCH  24  25
ATOM     25  C   UNL     1     -35.490  -8.373  -4.303  0.00  0.00    +0.000 C 
ATOM     26  C   UNL     1     -35.938  -9.789  -4.109  0.00  0.00    +0.000 C 
ATOM     27  C   UNL     1     -34.689  -7.811  -3.176  0.00  0.00    +0.000 C 
ENDBRANCH  24  25
ENDBRANCH   5  24
TORSDOF 7
ENDMDL
MODEL 6
REMARK VINA RESULT:      -5.7     13.851     17.276
REMARK  Name = 
REMARK  7 active torsions:
REMARK  status: ('A' for Active; 'I' for Inactive)
REMARK    1  A    between atoms: C_2  and  O_4
REMARK    2  A    between atoms: O_4  and  C_5
REMARK    3  A    between atoms: C_8  and  C_9
REMARK    4  A    between atoms: C_10  and  C_11
REMARK    5  A    between atoms: C_10  and  C_13
REMARK    6  A    between atoms: C_22  and  O_23
REMARK    7  A    between atoms: O_23  and  C_24
REMARK                            x       y       z     vdW  Elec       q    Type
REMARK                         _______ _______ _______ _____ _____    ______ ____
ROOT
ATOM      1  C   UNL     1     -28.917  10.344  -5.409  0.00  0.00    +0.000 A 
ATOM      2  C   UNL     1     -29.545  11.138  -6.349  0.00  0.00    +0.000 A 
ATOM      3  C   UNL     1     -29.128  10.964  -7.659  0.00  0.00    +0.000 A 
ATOM      4  C   UNL     1     -27.924  10.334  -7.953  0.00  0.00    +0.000 A 
ATOM      5  C   UNL     1     -27.036  10.255  -6.898  0.00  0.00    +0.000 A 
ATOM      6  C   UNL     1     -27.579  10.063  -5.634  0.00  0.00    +0.000 A 
ENDROOT
BRANCH   4   7
ATOM      7  C   UNL     1     -27.420  10.619  -9.304  0.00  0.00    +0.000 C 
ATOM      8  C   UNL     1     -28.057   9.982 -10.287  0.00  0.00    +0.000 C 
BRANCH   8   9
ATOM      9  C   UNL     1     -28.035   8.521 -10.148  0.00  0.00    +0.000 A 
ATOM     10  C   UNL     1     -26.803   7.942 -10.432  0.00  0.00    +0.000 A 
ATOM     11  C   UNL     1     -26.633   6.603 -10.665  0.00  0.00    +0.000 A 
ATOM     12  C   UNL     1     -27.752   5.802 -10.475  0.00  0.00    +0.000 A 
ATOM     13  C   UNL     1     -29.002   6.386 -10.631  0.00  0.00    +0.000 A 
ATOM     14  C   UNL     1     -29.151   7.739 -10.384  0.00  0.00    +0.000 A 
ATOM     15  O   UNL     1     -29.853   5.353 -11.032  0.00  0.00    +0.000 OA
ATOM     16  C   UNL     1     -29.300   4.176 -10.447  0.00  0.00    +0.000 C 
ATOM     17  O   UNL     1     -27.922   4.443 -10.296  0.00  0.00    +0.000 OA
ENDBRANCH   8   9
BRANCH   8  18
ATOM     18  C   UNL     1     -28.299  10.605 -11.569  0.00  0.00    +0.000 C 
ATOM     19  N   UNL     1     -28.501  10.971 -12.654  0.00  0.00    +0.000 NA
ENDBRANCH   8  18
ENDBRANCH   4   7
BRANCH   1  20
ATOM     20  O   UNL     1     -29.446  10.088  -4.157  0.00  0.00    +0.000 OA
BRANCH  20  22
ATOM     21  C   UNL     1     -30.997   9.186  -2.635  0.00  0.00    +0.000 C 
ATOM     22  C   UNL     1     -30.602   9.287  -4.082  0.00  0.00    +0.000 C 
ATOM     23  C   UNL     1     -30.438   7.938  -4.720  0.00  0.00    +0.000 C 
ENDBRANCH  20  22
ENDBRANCH   1  20
BRANCH   5  24
ATOM     24  O   UNL     1     -25.650  10.264  -7.078  0.00  0.00    +0.000 OA
BRANCH  24  25
ATOM     25  C   UNL     1     -24.937   9.197  -6.519  0.00  0.00    +0.000 C 
ATOM     26  C   UNL     1     -23.857   9.605  -5.565  0.00  0.00    +0.000 C 
ATOM     27  C   UNL     1     -24.543   8.132  -7.489  0.00  0.00    +0.000 C 
ENDBRANCH  24  25
ENDBRANCH   5  24
TORSDOF 7
ENDMDL
MODEL 7
REMARK VINA RESULT:      -5.7     27.956     33.331
REMARK  Name = 
REMARK  7 active torsions:
REMARK  status: ('A' for Active; 'I' for Inactive)
REMARK    1  A    between atoms: C_2  and  O_4
REMARK    2  A    between atoms: O_4  and  C_5
REMARK    3  A    between atoms: C_8  and  C_9
REMARK    4  A    between atoms: C_10  and  C_11
REMARK    5  A    between atoms: C_10  and  C_13
REMARK    6  A    between atoms: C_22  and  O_23
REMARK    7  A    between atoms: O_23  and  C_24
REMARK                            x       y       z     vdW  Elec       q    Type
REMARK                         _______ _______ _______ _____ _____    ______ ____
ROOT
ATOM      1  C   UNL     1     -14.239  15.083   1.950  0.00  0.00    +0.000 A 
ATOM      2  C   UNL     1     -12.874  14.906   2.072  0.00  0.00    +0.000 A 
ATOM      3  C   UNL     1     -12.112  16.063   2.047  0.00  0.00    +0.000 A 
ATOM      4  C   UNL     1     -12.633  17.256   1.557  0.00  0.00    +0.000 A 
ATOM      5  C   UNL     1     -13.762  17.121   0.774  0.00  0.00    +0.000 A 
ATOM      6  C   UNL     1     -14.656  16.119   1.130  0.00  0.00    +0.000 A 
ENDROOT
BRANCH   4   7
ATOM      7  C   UNL     1     -11.608  18.242   1.185  0.00  0.00    +0.000 C 
ATOM      8  C   UNL     1     -10.938  18.769   2.210  0.00  0.00    +0.000 C 
BRANCH   8   9
ATOM      9  C   UNL     1     -11.801  19.437   3.192  0.00  0.00    +0.000 A 
ATOM     10  C   UNL     1     -12.764  20.267   2.630  0.00  0.00    +0.000 A 
ATOM     11  C   UNL     1     -13.461  21.206   3.342  0.00  0.00    +0.000 A 
ATOM     12  C   UNL     1     -13.252  21.212   4.715  0.00  0.00    +0.000 A 
ATOM     13  C   UNL     1     -12.038  20.734   5.188  0.00  0.00    +0.000 A 
ATOM     14  C   UNL     1     -11.355  19.779   4.455  0.00  0.00    +0.000 A 
ATOM     15  O   UNL     1     -11.811  21.408   6.391  0.00  0.00    +0.000 OA
ATOM     16  C   UNL     1     -13.111  21.686   6.905  0.00  0.00    +0.000 C 
ATOM     17  O   UNL     1     -13.956  21.747   5.776  0.00  0.00    +0.000 OA
ENDBRANCH   8   9
BRANCH   8  18
ATOM     18  C   UNL     1      -9.530  19.084   2.120  0.00  0.00    +0.000 C 
ATOM     19  N   UNL     1      -8.394  19.253   1.929  0.00  0.00    +0.000 NA
ENDBRANCH   8  18
ENDBRANCH   4   7
BRANCH   1  20
ATOM     20  O   UNL     1     -15.165  14.131   2.338  0.00  0.00    +0.000 OA
BRANCH  20  22
ATOM     21  C   UNL     1     -16.701  12.876   1.074  0.00  0.00    +0.000 C 
ATOM     22  C   UNL     1     -15.280  12.967   1.554  0.00  0.00    +0.000 C 
ATOM     23  C   UNL     1     -14.842  11.720   2.266  0.00  0.00    +0.000 C 
ENDBRANCH  20  22
ENDBRANCH   1  20
BRANCH   5  24
ATOM     24  O   UNL     1     -14.064  17.998  -0.271  0.00  0.00    +0.000 OA
BRANCH  24  25
ATOM     25  C   UNL     1     -13.953  17.490  -1.571  0.00  0.00    +0.000 C 
ATOM     26  C   UNL     1     -12.784  18.018  -2.345  0.00  0.00    +0.000 C 
ATOM     27  C   UNL     1     -15.234  17.438  -2.333  0.00  0.00    +0.000 C 
ENDBRANCH  24  25
ENDBRANCH   5  24
TORSDOF 7
ENDMDL
MODEL 8
REMARK VINA RESULT:      -5.6     13.695     17.910
REMARK  Name = 
REMARK  7 active torsions:
REMARK  status: ('A' for Active; 'I' for Inactive)
REMARK    1  A    between atoms: C_2  and  O_4
REMARK    2  A    between atoms: O_4  and  C_5
REMARK    3  A    between atoms: C_8  and  C_9
REMARK    4  A    between atoms: C_10  and  C_11
REMARK    5  A    between atoms: C_10  and  C_13
REMARK    6  A    between atoms: C_22  and  O_23
REMARK    7  A    between atoms: O_23  and  C_24
REMARK                            x       y       z     vdW  Elec       q    Type
REMARK                         _______ _______ _______ _____ _____    ______ ____
ROOT
ATOM      1  C   UNL     1     -24.625   9.948  -4.839  0.00  0.00    +0.000 A 
ATOM      2  C   UNL     1     -23.275  10.219  -4.719  0.00  0.00    +0.000 A 
ATOM      3  C   UNL     1     -22.632   9.611  -3.652  0.00  0.00    +0.000 A 
ATOM      4  C   UNL     1     -23.351   9.091  -2.581  0.00  0.00    +0.000 A 
ATOM      5  C   UNL     1     -24.648   9.552  -2.471  0.00  0.00    +0.000 A 
ATOM      6  C   UNL     1     -25.331   9.792  -3.657  0.00  0.00    +0.000 A 
ENDROOT
BRANCH   4   7
ATOM      7  C   UNL     1     -22.547   8.897  -1.366  0.00  0.00    +0.000 C 
ATOM      8  C   UNL     1     -22.299   7.624  -1.055  0.00  0.00    +0.000 C 
BRANCH   8   9
ATOM      9  C   UNL     1     -23.514   6.821  -0.866  0.00  0.00    +0.000 A 
ATOM     10  C   UNL     1     -23.785   6.503   0.460  0.00  0.00    +0.000 A 
ATOM     11  C   UNL     1     -24.668   5.528   0.838  0.00  0.00    +0.000 A 
ATOM     12  C   UNL     1     -25.401   4.937  -0.185  0.00  0.00    +0.000 A 
ATOM     13  C   UNL     1     -24.845   4.923  -1.456  0.00  0.00    +0.000 A 
ATOM     14  C   UNL     1     -23.959   5.922  -1.818  0.00  0.00    +0.000 A 
ATOM     15  O   UNL     1     -25.381   3.798  -2.089  0.00  0.00    +0.000 OA
ATOM     16  C   UNL     1     -26.663   3.619  -1.493  0.00  0.00    +0.000 C 
ATOM     17  O   UNL     1     -26.561   4.188  -0.204  0.00  0.00    +0.000 OA
ENDBRANCH   8   9
BRANCH   8  18
ATOM     18  C   UNL     1     -21.037   7.210  -0.485  0.00  0.00    +0.000 C 
ATOM     19  N   UNL     1     -19.971   7.008  -0.064  0.00  0.00    +0.000 NA
ENDBRANCH   8  18
ENDBRANCH   4   7
BRANCH   1  20
ATOM     20  O   UNL     1     -25.332  10.126  -6.015  0.00  0.00    +0.000 OA
BRANCH  20  22
ATOM     21  C   UNL     1     -26.616   8.332  -6.830  0.00  0.00    +0.000 C 
ATOM     22  C   UNL     1     -25.319   9.080  -6.957  0.00  0.00    +0.000 C 
ATOM     23  C   UNL     1     -24.128   8.173  -6.828  0.00  0.00    +0.000 C 
ENDBRANCH  20  22
ENDBRANCH   1  20
BRANCH   5  24
ATOM     24  O   UNL     1     -25.299   9.684  -1.242  0.00  0.00    +0.000 OA
BRANCH  24  25
ATOM     25  C   UNL     1     -25.728  10.971  -0.893  0.00  0.00    +0.000 C 
ATOM     26  C   UNL     1     -24.619  11.952  -0.661  0.00  0.00    +0.000 C 
ATOM     27  C   UNL     1     -26.820  11.012   0.123  0.00  0.00    +0.000 C 
ENDBRANCH  24  25
ENDBRANCH   5  24
TORSDOF 7
ENDMDL
MODEL 9
REMARK VINA RESULT:      -5.6     37.626     39.993
REMARK  Name = 
REMARK  7 active torsions:
REMARK  status: ('A' for Active; 'I' for Inactive)
REMARK    1  A    between atoms: C_2  and  O_4
REMARK    2  A    between atoms: O_4  and  C_5
REMARK    3  A    between atoms: C_8  and  C_9
REMARK    4  A    between atoms: C_10  and  C_11
REMARK    5  A    between atoms: C_10  and  C_13
REMARK    6  A    between atoms: C_22  and  O_23
REMARK    7  A    between atoms: O_23  and  C_24
REMARK                            x       y       z     vdW  Elec       q    Type
REMARK                         _______ _______ _______ _____ _____    ______ ____
ROOT
ATOM      1  C   UNL     1      -3.364  17.044   3.098  0.00  0.00    +0.000 A 
ATOM      2  C   UNL     1      -4.372  16.103   3.197  0.00  0.00    +0.000 A 
ATOM      3  C   UNL     1      -4.029  14.917   3.827  0.00  0.00    +0.000 A 
ATOM      4  C   UNL     1      -2.698  14.553   3.999  0.00  0.00    +0.000 A 
ATOM      5  C   UNL     1      -1.802  15.223   3.190  0.00  0.00    +0.000 A 
ATOM      6  C   UNL     1      -2.081  16.555   2.914  0.00  0.00    +0.000 A 
ENDROOT
BRANCH   4   7
ATOM      7  C   UNL     1      -2.505  13.119   4.261  0.00  0.00    +0.000 C 
ATOM      8  C   UNL     1      -2.483  12.783   5.550  0.00  0.00    +0.000 C 
BRANCH   8   9
ATOM      9  C   UNL     1      -1.440  13.476   6.318  0.00  0.00    +0.000 A 
ATOM     10  C   UNL     1      -0.298  12.715   6.541  0.00  0.00    +0.000 A 
ATOM     11  C   UNL     1       0.653  13.036   7.473  0.00  0.00    +0.000 A 
ATOM     12  C   UNL     1       0.491  14.256   8.118  0.00  0.00    +0.000 A 
ATOM     13  C   UNL     1      -0.795  14.766   8.227  0.00  0.00    +0.000 A 
ATOM     14  C   UNL     1      -1.738  14.433   7.270  0.00  0.00    +0.000 A 
ATOM     15  O   UNL     1      -0.792  15.552   9.382  0.00  0.00    +0.000 OA
ATOM     16  C   UNL     1       0.548  16.026   9.498  0.00  0.00    +0.000 C 
ATOM     17  O   UNL     1       1.345  15.060   8.845  0.00  0.00    +0.000 OA
ENDBRANCH   8   9
BRANCH   8  18
ATOM     18  C   UNL     1      -3.059  11.545   6.027  0.00  0.00    +0.000 C 
ATOM     19  N   UNL     1      -3.421  10.482   6.330  0.00  0.00    +0.000 NA
ENDBRANCH   8  18
ENDBRANCH   4   7
BRANCH   1  20
ATOM     20  O   UNL     1      -3.601  18.388   2.873  0.00  0.00    +0.000 OA
BRANCH  20  22
ATOM     21  C   UNL     1      -5.560  19.523   2.237  0.00  0.00    +0.000 C 
ATOM     22  C   UNL     1      -4.788  18.943   3.388  0.00  0.00    +0.000 C 
ATOM     23  C   UNL     1      -4.556  19.948   4.479  0.00  0.00    +0.000 C 
ENDBRANCH  20  22
ENDBRANCH   1  20
BRANCH   5  24
ATOM     24  O   UNL     1      -0.614  14.642   2.739  0.00  0.00    +0.000 OA
BRANCH  24  25
ATOM     25  C   UNL     1      -0.476  14.485   1.355  0.00  0.00    +0.000 C 
ATOM     26  C   UNL     1      -0.792  13.110   0.852  0.00  0.00    +0.000 C 
ATOM     27  C   UNL     1       0.758  15.093   0.777  0.00  0.00    +0.000 C 
ENDBRANCH  24  25
ENDBRANCH   5  24
TORSDOF 7
ENDMDL
MODEL 10
REMARK VINA RESULT:      -5.4     14.613     17.496
REMARK  Name = 
REMARK  7 active torsions:
REMARK  status: ('A' for Active; 'I' for Inactive)
REMARK    1  A    between atoms: C_2  and  O_4
REMARK    2  A    between atoms: O_4  and  C_5
REMARK    3  A    between atoms: C_8  and  C_9
REMARK    4  A    between atoms: C_10  and  C_11
REMARK    5  A    between atoms: C_10  and  C_13
REMARK    6  A    between atoms: C_22  and  O_23
REMARK    7  A    between atoms: O_23  and  C_24
REMARK                            x       y       z     vdW  Elec       q    Type
REMARK                         _______ _______ _______ _____ _____    ______ ____
ROOT
ATOM      1  C   UNL     1     -26.713   7.640  -8.929  0.00  0.00    +0.000 A 
ATOM      2  C   UNL     1     -25.417   8.119  -8.961  0.00  0.00    +0.000 A 
ATOM      3  C   UNL     1     -24.917   8.583  -7.755  0.00  0.00    +0.000 A 
ATOM      4  C   UNL     1     -25.765   8.899  -6.699  0.00  0.00    +0.000 A 
ATOM      5  C   UNL     1     -27.087   9.086  -7.050  0.00  0.00    +0.000 A 
ATOM      6  C   UNL     1     -27.586   8.282  -8.066  0.00  0.00    +0.000 A 
ENDROOT
BRANCH   4   7
ATOM      7  C   UNL     1     -25.153   9.774  -5.689  0.00  0.00    +0.000 C 
ATOM      8  C   UNL     1     -24.275   9.174  -4.885  0.00  0.00    +0.000 C 
BRANCH   8   9
ATOM      9  C   UNL     1     -24.839   8.039  -4.145  0.00  0.00    +0.000 A 
ATOM     10  C   UNL     1     -26.064   8.305  -3.543  0.00  0.00    +0.000 A 
ATOM     11  C   UNL     1     -26.615   7.516  -2.569  0.00  0.00    +0.000 A 
ATOM     12  C   UNL     1     -25.943   6.333  -2.288  0.00  0.00    +0.000 A 
ATOM     13  C   UNL     1     -24.578   6.288  -2.535  0.00  0.00    +0.000 A 
ATOM     14  C   UNL     1     -24.045   7.090  -3.529  0.00  0.00    +0.000 A 
ATOM     15  O   UNL     1     -24.062   5.356  -1.631  0.00  0.00    +0.000 OA
ATOM     16  C   UNL     1     -25.127   4.436  -1.405  0.00  0.00    +0.000 C 
ATOM     17  O   UNL     1     -26.311   5.167  -1.646  0.00  0.00    +0.000 OA
ENDBRANCH   8   9
BRANCH   8  18
ATOM     18  C   UNL     1     -23.082   9.847  -4.420  0.00  0.00    +0.000 C 
ATOM     19  N   UNL     1     -22.212  10.486  -3.985  0.00  0.00    +0.000 NA
ENDBRANCH   8  18
ENDBRANCH   4   7
BRANCH   1  20
ATOM     20  O   UNL     1     -27.234   6.798  -9.895  0.00  0.00    +0.000 OA
BRANCH  20  22
ATOM     21  C   UNL     1     -29.228   5.982 -10.840  0.00  0.00    +0.000 C 
ATOM     22  C   UNL     1     -28.404   7.208 -10.564  0.00  0.00    +0.000 C 
ATOM     23  C   UNL     1     -28.134   8.001 -11.810  0.00  0.00    +0.000 C 
ENDBRANCH  20  22
ENDBRANCH   1  20
BRANCH   5  24
ATOM     24  O   UNL     1     -27.931   9.965  -6.365  0.00  0.00    +0.000 OA
BRANCH  24  25
ATOM     25  C   UNL     1     -28.491  11.008  -7.112  0.00  0.00    +0.000 C 
ATOM     26  C   UNL     1     -27.507  12.042  -7.567  0.00  0.00    +0.000 C 
ATOM     27  C   UNL     1     -29.764  11.558  -6.560  0.00  0.00    +0.000 C 
ENDBRANCH  24  25
ENDBRANCH   5  24
TORSDOF 7
ENDMDL
