MODEL 1
REMARK VINA RESULT:      -7.2      0.000      0.000
REMARK  Name = 
REMARK  5 active torsions:
REMARK  status: ('A' for Active; 'I' for Inactive)
REMARK    1  A    between atoms: O_2  and  C_3
REMARK    2  A    between atoms: C_5  and  O_6
REMARK    3  A    between atoms: C_8  and  C_9
REMARK    4  A    between atoms: C_10  and  C_11
REMARK    5  A    between atoms: C_10  and  C_13
REMARK                            x       y       z     vdW  Elec       q    Type
REMARK                         _______ _______ _______ _____ _____    ______ ____
ROOT
ATOM      1  C   UNL     1     -30.274  -5.980  -4.215  0.00  0.00    +0.000 C 
ATOM      2  C   UNL     1     -29.910  -4.720  -4.458  0.00  0.00    +0.000 C 
ENDROOT
BRANCH   2   3
ATOM      3  C   UNL     1     -30.700  -4.031  -5.485  0.00  0.00    +0.000 A 
ATOM      4  C   UNL     1     -30.755  -4.516  -6.781  0.00  0.00    +0.000 A 
ATOM      5  C   UNL     1     -31.832  -4.189  -7.583  0.00  0.00    +0.000 A 
ATOM      6  C   UNL     1     -32.943  -3.551  -7.062  0.00  0.00    +0.000 A 
ATOM      7  C   UNL     1     -32.837  -2.919  -5.830  0.00  0.00    +0.000 A 
ATOM      8  C   UNL     1     -31.683  -3.156  -5.102  0.00  0.00    +0.000 A 
ATOM      9  O   UNL     1     -34.139  -2.552  -5.476  0.00  0.00    +0.000 OA
ATOM     10  C   UNL     1     -35.074  -3.361  -6.190  0.00  0.00    +0.000 C 
ATOM     11  O   UNL     1     -34.307  -3.641  -7.359  0.00  0.00    +0.000 OA
ENDBRANCH   2   3
BRANCH   1  15
ATOM     12  C   UNL     1     -34.050  -7.460  -3.150  0.00  0.00    +0.000 A 
ATOM     13  C   UNL     1     -33.179  -6.922  -2.227  0.00  0.00    +0.000 A 
ATOM     14  C   UNL     1     -32.071  -6.180  -2.614  0.00  0.00    +0.000 A 
ATOM     15  C   UNL     1     -31.701  -6.209  -3.953  0.00  0.00    +0.000 A 
ATOM     16  C   UNL     1     -32.459  -6.952  -4.851  0.00  0.00    +0.000 A 
ATOM     17  C   UNL     1     -33.667  -7.491  -4.486  0.00  0.00    +0.000 A 
ATOM     18 CL   UNL     1     -34.940  -7.843  -5.651  0.00  0.00    +0.000 Cl
BRANCH  12  20
ATOM     19  C   UNL     1     -36.440  -7.922  -2.779  0.00  0.00    +0.000 C 
ATOM     20  O   UNL     1     -35.071  -8.291  -2.682  0.00  0.00    +0.000 OA
ENDBRANCH  12  20
BRANCH  14  21
ATOM     21  O   UNL     1     -31.716  -5.005  -1.939  0.00  0.00    +0.000 OA
ATOM     22  C   UNL     1     -31.596  -4.930  -0.540  0.00  0.00    +0.000 C 
ENDBRANCH  14  21
ENDBRANCH   1  15
BRANCH   2  23
ATOM     23  C   UNL     1     -28.581  -4.267  -4.115  0.00  0.00    +0.000 C 
ATOM     24  N   UNL     1     -27.515  -3.791  -4.116  0.00  0.00    +0.000 NA
ENDBRANCH   2  23
TORSDOF 5
ENDMDL
MODEL 2
REMARK VINA RESULT:      -6.4      1.754      4.875
REMARK  Name = 
REMARK  5 active torsions:
REMARK  status: ('A' for Active; 'I' for Inactive)
REMARK    1  A    between atoms: O_2  and  C_3
REMARK    2  A    between atoms: C_5  and  O_6
REMARK    3  A    between atoms: C_8  and  C_9
REMARK    4  A    between atoms: C_10  and  C_11
REMARK    5  A    between atoms: C_10  and  C_13
REMARK                            x       y       z     vdW  Elec       q    Type
REMARK                         _______ _______ _______ _____ _____    ______ ____
ROOT
ATOM      1  C   UNL     1     -31.607  -3.498  -4.232  0.00  0.00    +0.000 C 
ATOM      2  C   UNL     1     -30.868  -4.599  -4.379  0.00  0.00    +0.000 C 
ENDROOT
BRANCH   2   3
ATOM      3  C   UNL     1     -31.501  -5.839  -3.917  0.00  0.00    +0.000 A 
ATOM      4  C   UNL     1     -31.730  -6.058  -2.568  0.00  0.00    +0.000 A 
ATOM      5  C   UNL     1     -32.722  -6.940  -2.183  0.00  0.00    +0.000 A 
ATOM      6  C   UNL     1     -33.614  -7.459  -3.105  0.00  0.00    +0.000 A 
ATOM      7  C   UNL     1     -33.301  -7.386  -4.455  0.00  0.00    +0.000 A 
ATOM      8  C   UNL     1     -32.215  -6.601  -4.804  0.00  0.00    +0.000 A 
ATOM      9  O   UNL     1     -34.452  -7.793  -5.137  0.00  0.00    +0.000 OA
ATOM     10  C   UNL     1     -35.590  -7.634  -4.289  0.00  0.00    +0.000 C 
ATOM     11  O   UNL     1     -34.967  -7.801  -3.017  0.00  0.00    +0.000 OA
ENDBRANCH   2   3
BRANCH   1  15
ATOM     12  C   UNL     1     -35.558  -2.778  -5.436  0.00  0.00    +0.000 A 
ATOM     13  C   UNL     1     -34.473  -2.376  -6.184  0.00  0.00    +0.000 A 
ATOM     14  C   UNL     1     -33.195  -2.862  -5.936  0.00  0.00    +0.000 A 
ATOM     15  C   UNL     1     -32.979  -3.558  -4.753  0.00  0.00    +0.000 A 
ATOM     16  C   UNL     1     -34.042  -3.760  -3.880  0.00  0.00    +0.000 A 
ATOM     17  C   UNL     1     -35.331  -3.467  -4.250  0.00  0.00    +0.000 A 
ATOM     18 CL   UNL     1     -36.729  -4.263  -3.534  0.00  0.00    +0.000 Cl
BRANCH  12  20
ATOM     19  C   UNL     1     -37.057  -0.836  -5.213  0.00  0.00    +0.000 C 
ATOM     20  O   UNL     1     -36.785  -2.153  -5.673  0.00  0.00    +0.000 OA
ENDBRANCH  12  20
BRANCH  14  21
ATOM     21  O   UNL     1     -32.344  -3.226  -6.987  0.00  0.00    +0.000 OA
ATOM     22  C   UNL     1     -32.576  -4.341  -7.812  0.00  0.00    +0.000 C 
ENDBRANCH  14  21
ENDBRANCH   1  15
BRANCH   2  23
ATOM     23  C   UNL     1     -29.432  -4.500  -4.506  0.00  0.00    +0.000 C 
ATOM     24  N   UNL     1     -28.309  -4.192  -4.417  0.00  0.00    +0.000 NA
ENDBRANCH   2  23
TORSDOF 5
ENDMDL
MODEL 3
REMARK VINA RESULT:      -6.1      3.130      4.819
REMARK  Name = 
REMARK  5 active torsions:
REMARK  status: ('A' for Active; 'I' for Inactive)
REMARK    1  A    between atoms: O_2  and  C_3
REMARK    2  A    between atoms: C_5  and  O_6
REMARK    3  A    between atoms: C_8  and  C_9
REMARK    4  A    between atoms: C_10  and  C_11
REMARK    5  A    between atoms: C_10  and  C_13
REMARK                            x       y       z     vdW  Elec       q    Type
REMARK                         _______ _______ _______ _____ _____    ______ ____
ROOT
ATOM      1  C   UNL     1     -35.817  -6.526  -6.117  0.00  0.00    +0.000 C 
ATOM      2  C   UNL     1     -35.340  -6.162  -7.307  0.00  0.00    +0.000 C 
ENDROOT
BRANCH   2   3
ATOM      3  C   UNL     1     -34.656  -4.864  -7.333  0.00  0.00    +0.000 A 
ATOM      4  C   UNL     1     -35.200  -3.762  -6.693  0.00  0.00    +0.000 A 
ATOM      5  C   UNL     1     -34.371  -2.727  -6.301  0.00  0.00    +0.000 A 
ATOM      6  C   UNL     1     -32.995  -2.852  -6.360  0.00  0.00    +0.000 A 
ATOM      7  C   UNL     1     -32.446  -3.860  -7.141  0.00  0.00    +0.000 A 
ATOM      8  C   UNL     1     -33.320  -4.814  -7.636  0.00  0.00    +0.000 A 
ATOM      9  O   UNL     1     -31.079  -3.869  -6.848  0.00  0.00    +0.000 OA
ATOM     10  C   UNL     1     -30.859  -3.255  -5.578  0.00  0.00    +0.000 C 
ATOM     11  O   UNL     1     -31.969  -2.360  -5.548  0.00  0.00    +0.000 OA
ENDBRANCH   2   3
BRANCH   1  15
ATOM     12  C   UNL     1     -32.868  -5.537  -3.304  0.00  0.00    +0.000 A 
ATOM     13  C   UNL     1     -34.122  -4.966  -3.292  0.00  0.00    +0.000 A 
ATOM     14  C   UNL     1     -35.173  -5.497  -4.029  0.00  0.00    +0.000 A 
ATOM     15  C   UNL     1     -34.879  -6.458  -4.988  0.00  0.00    +0.000 A 
ATOM     16  C   UNL     1     -33.561  -6.866  -5.158  0.00  0.00    +0.000 A 
ATOM     17  C   UNL     1     -32.581  -6.492  -4.273  0.00  0.00    +0.000 A 
ATOM     18 CL   UNL     1     -31.118  -7.439  -4.021  0.00  0.00    +0.000 Cl
BRANCH  12  20
ATOM     19  C   UNL     1     -31.711  -4.931  -1.216  0.00  0.00    +0.000 C 
ATOM     20  O   UNL     1     -31.839  -4.873  -2.631  0.00  0.00    +0.000 OA
ENDBRANCH  12  20
BRANCH  14  21
ATOM     21  O   UNL     1     -36.460  -5.595  -3.484  0.00  0.00    +0.000 OA
ATOM     22  C   UNL     1     -37.395  -4.546  -3.527  0.00  0.00    +0.000 C 
ENDBRANCH  14  21
ENDBRANCH   1  15
BRANCH   2  23
ATOM     23  C   UNL     1     -35.881  -6.740  -8.516  0.00  0.00    +0.000 C 
ATOM     24  N   UNL     1     -36.360  -6.919  -9.566  0.00  0.00    +0.000 NA
ENDBRANCH   2  23
TORSDOF 5
ENDMDL
MODEL 4
REMARK VINA RESULT:      -5.9     14.118     16.589
REMARK  Name = 
REMARK  5 active torsions:
REMARK  status: ('A' for Active; 'I' for Inactive)
REMARK    1  A    between atoms: O_2  and  C_3
REMARK    2  A    between atoms: C_5  and  O_6
REMARK    3  A    between atoms: C_8  and  C_9
REMARK    4  A    between atoms: C_10  and  C_11
REMARK    5  A    between atoms: C_10  and  C_13
REMARK                            x       y       z     vdW  Elec       q    Type
REMARK                         _______ _______ _______ _____ _____    ______ ____
ROOT
ATOM      1  C   UNL     1     -21.912   8.366   0.062  0.00  0.00    +0.000 C 
ATOM      2  C   UNL     1     -21.913   7.182  -0.552  0.00  0.00    +0.000 C 
ENDROOT
BRANCH   2   3
ATOM      3  C   UNL     1     -23.241   6.657  -0.888  0.00  0.00    +0.000 A 
ATOM      4  C   UNL     1     -23.700   6.672  -2.196  0.00  0.00    +0.000 A 
ATOM      5  C   UNL     1     -24.677   5.774  -2.582  0.00  0.00    +0.000 A 
ATOM      6  C   UNL     1     -25.067   4.740  -1.750  0.00  0.00    +0.000 A 
ATOM      7  C   UNL     1     -24.749   4.809  -0.400  0.00  0.00    +0.000 A 
ATOM      8  C   UNL     1     -23.868   5.807  -0.015  0.00  0.00    +0.000 A 
ATOM      9  O   UNL     1     -25.081   3.561   0.135  0.00  0.00    +0.000 OA
ATOM     10  C   UNL     1     -25.121   2.589  -0.910  0.00  0.00    +0.000 C 
ATOM     11  O   UNL     1     -25.477   3.428  -2.006  0.00  0.00    +0.000 OA
ENDBRANCH   2   3
BRANCH   1  15
ATOM     12  C   UNL     1     -24.610  10.692  -2.151  0.00  0.00    +0.000 A 
ATOM     13  C   UNL     1     -24.959  10.083  -0.965  0.00  0.00    +0.000 A 
ATOM     14  C   UNL     1     -24.002   9.564  -0.101  0.00  0.00    +0.000 A 
ATOM     15  C   UNL     1     -22.701   9.431  -0.571  0.00  0.00    +0.000 A 
ATOM     16  C   UNL     1     -22.402   9.837  -1.866  0.00  0.00    +0.000 A 
ATOM     17  C   UNL     1     -23.308  10.546  -2.616  0.00  0.00    +0.000 A 
ATOM     18 CL   UNL     1     -22.822  11.627  -3.919  0.00  0.00    +0.000 Cl
BRANCH  12  20
ATOM     19  C   UNL     1     -26.156  10.199  -4.003  0.00  0.00    +0.000 C 
ATOM     20  O   UNL     1     -25.636  11.079  -3.015  0.00  0.00    +0.000 OA
ENDBRANCH  12  20
BRANCH  14  21
ATOM     21  O   UNL     1     -24.103   9.750   1.284  0.00  0.00    +0.000 OA
ATOM     22  C   UNL     1     -24.937   8.971   2.105  0.00  0.00    +0.000 C 
ENDBRANCH  14  21
ENDBRANCH   1  15
BRANCH   2  23
ATOM     23  C   UNL     1     -20.773   6.301  -0.437  0.00  0.00    +0.000 C 
ATOM     24  N   UNL     1     -19.721   5.837  -0.236  0.00  0.00    +0.000 NA
ENDBRANCH   2  23
TORSDOF 5
ENDMDL
MODEL 5
REMARK VINA RESULT:      -5.8      3.986      6.375
REMARK  Name = 
REMARK  5 active torsions:
REMARK  status: ('A' for Active; 'I' for Inactive)
REMARK    1  A    between atoms: O_2  and  C_3
REMARK    2  A    between atoms: C_5  and  O_6
REMARK    3  A    between atoms: C_8  and  C_9
REMARK    4  A    between atoms: C_10  and  C_11
REMARK    5  A    between atoms: C_10  and  C_13
REMARK                            x       y       z     vdW  Elec       q    Type
REMARK                         _______ _______ _______ _____ _____    ______ ____
ROOT
ATOM      1  C   UNL     1     -36.203  -5.095  -6.367  0.00  0.00    +0.000 C 
ATOM      2  C   UNL     1     -35.198  -4.290  -6.022  0.00  0.00    +0.000 C 
ENDROOT
BRANCH   2   3
ATOM      3  C   UNL     1     -33.864  -4.755  -6.419  0.00  0.00    +0.000 A 
ATOM      4  C   UNL     1     -33.139  -4.085  -7.390  0.00  0.00    +0.000 A 
ATOM      5  C   UNL     1     -31.762  -4.203  -7.411  0.00  0.00    +0.000 A 
ATOM      6  C   UNL     1     -31.081  -4.815  -6.374  0.00  0.00    +0.000 A 
ATOM      7  C   UNL     1     -31.787  -5.626  -5.495  0.00  0.00    +0.000 A 
ATOM      8  C   UNL     1     -33.169  -5.592  -5.585  0.00  0.00    +0.000 A 
ATOM      9  O   UNL     1     -30.899  -5.932  -4.460  0.00  0.00    +0.000 OA
ATOM     10  C   UNL     1     -29.859  -4.954  -4.419  0.00  0.00    +0.000 C 
ATOM     11  O   UNL     1     -29.834  -4.572  -5.792  0.00  0.00    +0.000 OA
ENDBRANCH   2   3
BRANCH   1  15
ATOM     12  C   UNL     1     -37.081  -6.790 -10.101  0.00  0.00    +0.000 A 
ATOM     13  C   UNL     1     -37.740  -5.679  -9.620  0.00  0.00    +0.000 A 
ATOM     14  C   UNL     1     -37.259  -4.958  -8.535  0.00  0.00    +0.000 A 
ATOM     15  C   UNL     1     -36.245  -5.524  -7.772  0.00  0.00    +0.000 A 
ATOM     16  C   UNL     1     -35.739  -6.768  -8.131  0.00  0.00    +0.000 A 
ATOM     17  C   UNL     1     -36.073  -7.354  -9.326  0.00  0.00    +0.000 A 
ATOM     18 CL   UNL     1     -35.035  -8.524 -10.134  0.00  0.00    +0.000 Cl
BRANCH  12  20
ATOM     19  C   UNL     1     -39.063  -7.343 -11.455  0.00  0.00    +0.000 C 
ATOM     20  O   UNL     1     -37.694  -7.526 -11.119  0.00  0.00    +0.000 OA
ENDBRANCH  12  20
BRANCH  14  21
ATOM     21  O   UNL     1     -37.272  -3.557  -8.536  0.00  0.00    +0.000 OA
ATOM     22  C   UNL     1     -38.007  -2.796  -9.461  0.00  0.00    +0.000 C 
ENDBRANCH  14  21
ENDBRANCH   1  15
BRANCH   2  23
ATOM     23  C   UNL     1     -35.364  -3.339  -4.947  0.00  0.00    +0.000 C 
ATOM     24  N   UNL     1     -35.754  -2.719  -4.038  0.00  0.00    +0.000 NA
ENDBRANCH   2  23
TORSDOF 5
ENDMDL
MODEL 6
REMARK VINA RESULT:      -5.8     12.822     15.295
REMARK  Name = 
REMARK  5 active torsions:
REMARK  status: ('A' for Active; 'I' for Inactive)
REMARK    1  A    between atoms: O_2  and  C_3
REMARK    2  A    between atoms: C_5  and  O_6
REMARK    3  A    between atoms: C_8  and  C_9
REMARK    4  A    between atoms: C_10  and  C_11
REMARK    5  A    between atoms: C_10  and  C_13
REMARK                            x       y       z     vdW  Elec       q    Type
REMARK                         _______ _______ _______ _____ _____    ______ ____
ROOT
ATOM      1  C   UNL     1     -30.411   6.529 -11.477  0.00  0.00    +0.000 C 
ATOM      2  C   UNL     1     -29.491   6.306 -10.537  0.00  0.00    +0.000 C 
ENDROOT
BRANCH   2   3
ATOM      3  C   UNL     1     -28.886   7.512  -9.961  0.00  0.00    +0.000 A 
ATOM      4  C   UNL     1     -29.406   8.088  -8.813  0.00  0.00    +0.000 A 
ATOM      5  C   UNL     1     -28.593   8.877  -8.022  0.00  0.00    +0.000 A 
ATOM      6  C   UNL     1     -27.229   8.947  -8.245  0.00  0.00    +0.000 A 
ATOM      7  C   UNL     1     -26.728   8.522  -9.467  0.00  0.00    +0.000 A 
ATOM      8  C   UNL     1     -27.603   7.850 -10.304  0.00  0.00    +0.000 A 
ATOM      9  O   UNL     1     -25.336   8.518  -9.328  0.00  0.00    +0.000 OA
ATOM     10  C   UNL     1     -24.995   8.445  -7.943  0.00  0.00    +0.000 C 
ATOM     11  O   UNL     1     -26.139   9.082  -7.379  0.00  0.00    +0.000 OA
ENDBRANCH   2   3
BRANCH   1  15
ATOM     12  C   UNL     1     -33.868   8.893 -11.263  0.00  0.00    +0.000 A 
ATOM     13  C   UNL     1     -33.833   7.591 -10.814  0.00  0.00    +0.000 A 
ATOM     14  C   UNL     1     -32.635   6.916 -10.620  0.00  0.00    +0.000 A 
ATOM     15  C   UNL     1     -31.476   7.482 -11.137  0.00  0.00    +0.000 A 
ATOM     16  C   UNL     1     -31.553   8.699 -11.803  0.00  0.00    +0.000 A 
ATOM     17  C   UNL     1     -32.704   9.447 -11.786  0.00  0.00    +0.000 A 
ATOM     18 CL   UNL     1     -32.705  11.195 -12.001  0.00  0.00    +0.000 Cl
BRANCH  12  20
ATOM     19  C   UNL     1     -35.804   9.185 -12.757  0.00  0.00    +0.000 C 
ATOM     20  O   UNL     1     -35.115   9.457 -11.544  0.00  0.00    +0.000 OA
ENDBRANCH  12  20
BRANCH  14  21
ATOM     21  O   UNL     1     -32.434   6.110  -9.492  0.00  0.00    +0.000 OA
ATOM     22  C   UNL     1     -32.766   6.517  -8.187  0.00  0.00    +0.000 C 
ENDBRANCH  14  21
ENDBRANCH   1  15
BRANCH   2  23
ATOM     23  C   UNL     1     -28.816   5.030 -10.467  0.00  0.00    +0.000 C 
ATOM     24  N   UNL     1     -28.528   3.914 -10.283  0.00  0.00    +0.000 NA
ENDBRANCH   2  23
TORSDOF 5
ENDMDL
MODEL 7
REMARK VINA RESULT:      -5.6     33.435     35.819
REMARK  Name = 
REMARK  5 active torsions:
REMARK  status: ('A' for Active; 'I' for Inactive)
REMARK    1  A    between atoms: O_2  and  C_3
REMARK    2  A    between atoms: C_5  and  O_6
REMARK    3  A    between atoms: C_8  and  C_9
REMARK    4  A    between atoms: C_10  and  C_11
REMARK    5  A    between atoms: C_10  and  C_13
REMARK                            x       y       z     vdW  Elec       q    Type
REMARK                         _______ _______ _______ _____ _____    ______ ____
ROOT
ATOM      1  C   UNL     1     -12.080  17.940 -21.141  0.00  0.00    +0.000 C 
ATOM      2  C   UNL     1     -13.410  17.930 -21.228  0.00  0.00    +0.000 C 
ENDROOT
BRANCH   2   3
ATOM      3  C   UNL     1     -14.103  18.776 -20.250  0.00  0.00    +0.000 A 
ATOM      4  C   UNL     1     -14.836  19.879 -20.658  0.00  0.00    +0.000 A 
ATOM      5  C   UNL     1     -15.848  20.359 -19.849  0.00  0.00    +0.000 A 
ATOM      6  C   UNL     1     -16.271  19.651 -18.738  0.00  0.00    +0.000 A 
ATOM      7  C   UNL     1     -15.453  18.653 -18.228  0.00  0.00    +0.000 A 
ATOM      8  C   UNL     1     -14.364  18.281 -18.998  0.00  0.00    +0.000 A 
ATOM      9  O   UNL     1     -16.216  17.992 -17.259  0.00  0.00    +0.000 OA
ATOM     10  C   UNL     1     -17.603  18.222 -17.506  0.00  0.00    +0.000 C 
ATOM     11  O   UNL     1     -17.527  19.495 -18.143  0.00  0.00    +0.000 OA
ENDBRANCH   2   3
BRANCH   1  15
ATOM     12  C   UNL     1      -9.474  21.223 -21.266  0.00  0.00    +0.000 A 
ATOM     13  C   UNL     1     -10.006  20.657 -22.405  0.00  0.00    +0.000 A 
ATOM     14  C   UNL     1     -11.076  19.774 -22.350  0.00  0.00    +0.000 A 
ATOM     15  C   UNL     1     -11.436  19.260 -21.110  0.00  0.00    +0.000 A 
ATOM     16  C   UNL     1     -10.735  19.662 -19.979  0.00  0.00    +0.000 A 
ATOM     17  C   UNL     1      -9.835  20.697 -20.031  0.00  0.00    +0.000 A 
ATOM     18 CL   UNL     1      -9.425  21.671 -18.622  0.00  0.00    +0.000 Cl
BRANCH  12  20
ATOM     19  C   UNL     1      -7.022  21.454 -21.273  0.00  0.00    +0.000 C 
ATOM     20  O   UNL     1      -8.325  22.007 -21.399  0.00  0.00    +0.000 OA
ENDBRANCH  12  20
BRANCH  14  21
ATOM     21  O   UNL     1     -12.127  19.854 -23.273  0.00  0.00    +0.000 OA
ATOM     22  C   UNL     1     -12.012  19.426 -24.607  0.00  0.00    +0.000 C 
ENDBRANCH  14  21
ENDBRANCH   1  15
BRANCH   2  23
ATOM     23  C   UNL     1     -14.090  16.829 -21.872  0.00  0.00    +0.000 C 
ATOM     24  N   UNL     1     -14.718  15.874 -22.110  0.00  0.00    +0.000 NA
ENDBRANCH   2  23
TORSDOF 5
ENDMDL
MODEL 8
REMARK VINA RESULT:      -5.5     13.184     15.887
REMARK  Name = 
REMARK  5 active torsions:
REMARK  status: ('A' for Active; 'I' for Inactive)
REMARK    1  A    between atoms: O_2  and  C_3
REMARK    2  A    between atoms: C_5  and  O_6
REMARK    3  A    between atoms: C_8  and  C_9
REMARK    4  A    between atoms: C_10  and  C_11
REMARK    5  A    between atoms: C_10  and  C_13
REMARK                            x       y       z     vdW  Elec       q    Type
REMARK                         _______ _______ _______ _____ _____    ______ ____
ROOT
ATOM      1  C   UNL     1     -30.573   8.519 -12.169  0.00  0.00    +0.000 C 
ATOM      2  C   UNL     1     -31.587   8.860 -11.373  0.00  0.00    +0.000 C 
ENDROOT
BRANCH   2   3
ATOM      3  C   UNL     1     -31.462   8.414  -9.981  0.00  0.00    +0.000 A 
ATOM      4  C   UNL     1     -31.489   9.325  -8.938  0.00  0.00    +0.000 A 
ATOM      5  C   UNL     1     -31.860   8.901  -7.676  0.00  0.00    +0.000 A 
ATOM      6  C   UNL     1     -32.387   7.639  -7.472  0.00  0.00    +0.000 A 
ATOM      7  C   UNL     1     -32.212   6.673  -8.453  0.00  0.00    +0.000 A 
ATOM      8  C   UNL     1     -31.709   7.101  -9.671  0.00  0.00    +0.000 A 
ATOM      9  O   UNL     1     -33.009   5.590  -8.070  0.00  0.00    +0.000 OA
ATOM     10  C   UNL     1     -34.028   6.040  -7.177  0.00  0.00    +0.000 C 
ATOM     11  O   UNL     1     -33.359   7.155  -6.591  0.00  0.00    +0.000 OA
ENDBRANCH   2   3
BRANCH   1  15
ATOM     12  C   UNL     1     -27.116   9.338  -9.941  0.00  0.00    +0.000 A 
ATOM     13  C   UNL     1     -27.560   8.054 -10.171  0.00  0.00    +0.000 A 
ATOM     14  C   UNL     1     -28.522   7.775 -11.135  0.00  0.00    +0.000 A 
ATOM     15  C   UNL     1     -29.224   8.841 -11.684  0.00  0.00    +0.000 A 
ATOM     16  C   UNL     1     -28.928  10.135 -11.270  0.00  0.00    +0.000 A 
ATOM     17  C   UNL     1     -27.831  10.398 -10.489  0.00  0.00    +0.000 A 
ATOM     18 CL   UNL     1     -27.028  11.965 -10.475  0.00  0.00    +0.000 Cl
BRANCH  12  20
ATOM     19  C   UNL     1     -25.450   8.492  -8.337  0.00  0.00    +0.000 C 
ATOM     20  O   UNL     1     -26.236   9.546  -8.876  0.00  0.00    +0.000 OA
ENDBRANCH  12  20
BRANCH  14  21
ATOM     21  O   UNL     1     -28.397   6.665 -11.980  0.00  0.00    +0.000 OA
ATOM     22  C   UNL     1     -28.573   5.341 -11.541  0.00  0.00    +0.000 C 
ENDBRANCH  14  21
ENDBRANCH   1  15
BRANCH   2  23
ATOM     23  C   UNL     1     -32.878   9.183 -11.936  0.00  0.00    +0.000 C 
ATOM     24  N   UNL     1     -33.856   9.717 -12.285  0.00  0.00    +0.000 NA
ENDBRANCH   2  23
TORSDOF 5
ENDMDL
MODEL 9
REMARK VINA RESULT:      -5.5     20.908     22.963
REMARK  Name = 
REMARK  5 active torsions:
REMARK  status: ('A' for Active; 'I' for Inactive)
REMARK    1  A    between atoms: O_2  and  C_3
REMARK    2  A    between atoms: C_5  and  O_6
REMARK    3  A    between atoms: C_8  and  C_9
REMARK    4  A    between atoms: C_10  and  C_11
REMARK    5  A    between atoms: C_10  and  C_13
REMARK                            x       y       z     vdW  Elec       q    Type
REMARK                         _______ _______ _______ _____ _____    ______ ____
ROOT
ATOM      1  C   UNL     1     -22.427  -9.256 -22.445  0.00  0.00    +0.000 C 
ATOM      2  C   UNL     1     -21.702  -8.468 -23.240  0.00  0.00    +0.000 C 
ENDROOT
BRANCH   2   3
ATOM      3  C   UNL     1     -20.823  -9.172 -24.180  0.00  0.00    +0.000 A 
ATOM      4  C   UNL     1     -20.758  -8.793 -25.511  0.00  0.00    +0.000 A 
ATOM      5  C   UNL     1     -19.629  -9.097 -26.248  0.00  0.00    +0.000 A 
ATOM      6  C   UNL     1     -18.491  -9.596 -25.641  0.00  0.00    +0.000 A 
ATOM      7  C   UNL     1     -18.593 -10.130 -24.364  0.00  0.00    +0.000 A 
ATOM      8  C   UNL     1     -19.788  -9.929 -23.694  0.00  0.00    +0.000 A 
ATOM      9  O   UNL     1     -17.280 -10.359 -23.940  0.00  0.00    +0.000 OA
ATOM     10  C   UNL     1     -16.386  -9.538 -24.692  0.00  0.00    +0.000 C 
ATOM     11  O   UNL     1     -17.129  -9.419 -25.903  0.00  0.00    +0.000 OA
ENDBRANCH   2   3
BRANCH   1  15
ATOM     12  C   UNL     1     -25.117 -12.280 -23.545  0.00  0.00    +0.000 A 
ATOM     13  C   UNL     1     -25.424 -10.941 -23.654  0.00  0.00    +0.000 A 
ATOM     14  C   UNL     1     -24.447  -9.957 -23.567  0.00  0.00    +0.000 A 
ATOM     15  C   UNL     1     -23.190 -10.325 -23.104  0.00  0.00    +0.000 A 
ATOM     16  C   UNL     1     -22.951 -11.653 -22.770  0.00  0.00    +0.000 A 
ATOM     17  C   UNL     1     -23.858 -12.637 -23.073  0.00  0.00    +0.000 A 
ATOM     18 CL   UNL     1     -23.394 -14.321 -23.298  0.00  0.00    +0.000 Cl
BRANCH  12  20
ATOM     19  C   UNL     1     -27.349 -12.965 -22.763  0.00  0.00    +0.000 C 
ATOM     20  O   UNL     1     -26.172 -13.195 -23.525  0.00  0.00    +0.000 OA
ENDBRANCH  12  20
BRANCH  14  21
ATOM     21  O   UNL     1     -24.448  -8.860 -24.438  0.00  0.00    +0.000 OA
ATOM     22  C   UNL     1     -24.500  -8.990 -25.837  0.00  0.00    +0.000 C 
ENDBRANCH  14  21
ENDBRANCH   1  15
BRANCH   2  23
ATOM     23  C   UNL     1     -21.442  -7.097 -22.865  0.00  0.00    +0.000 C 
ATOM     24  N   UNL     1     -21.038  -6.004 -22.789  0.00  0.00    +0.000 NA
ENDBRANCH   2  23
TORSDOF 5
ENDMDL
MODEL 10
REMARK VINA RESULT:      -5.3     12.923     14.698
REMARK  Name = 
REMARK  5 active torsions:
REMARK  status: ('A' for Active; 'I' for Inactive)
REMARK    1  A    between atoms: O_2  and  C_3
REMARK    2  A    between atoms: C_5  and  O_6
REMARK    3  A    between atoms: C_8  and  C_9
REMARK    4  A    between atoms: C_10  and  C_11
REMARK    5  A    between atoms: C_10  and  C_13
REMARK                            x       y       z     vdW  Elec       q    Type
REMARK                         _______ _______ _______ _____ _____    ______ ____
ROOT
ATOM      1  C   UNL     1     -32.430   9.261  -9.854  0.00  0.00    +0.000 C 
ATOM      2  C   UNL     1     -31.449   9.127 -10.748  0.00  0.00    +0.000 C 
ENDROOT
BRANCH   2   3
ATOM      3  C   UNL     1     -30.585   7.958 -10.552  0.00  0.00    +0.000 A 
ATOM      4  C   UNL     1     -30.508   6.963 -11.513  0.00  0.00    +0.000 A 
ATOM      5  C   UNL     1     -29.385   6.159 -11.569  0.00  0.00    +0.000 A 
ATOM      6  C   UNL     1     -28.260   6.448 -10.817  0.00  0.00    +0.000 A 
ATOM      7  C   UNL     1     -28.378   7.322  -9.745  0.00  0.00    +0.000 A 
ATOM      8  C   UNL     1     -29.570   8.018  -9.633  0.00  0.00    +0.000 A 
ATOM      9  O   UNL     1     -27.072   7.576  -9.314  0.00  0.00    +0.000 OA
ATOM     10  C   UNL     1     -26.157   7.292 -10.373  0.00  0.00    +0.000 C 
ATOM     11  O   UNL     1     -26.894   6.288 -11.066  0.00  0.00    +0.000 OA
ENDBRANCH   2   3
BRANCH   1  15
ATOM     12  C   UNL     1     -35.370   6.489  -8.733  0.00  0.00    +0.000 A 
ATOM     13  C   UNL     1     -35.531   7.346  -9.800  0.00  0.00    +0.000 A 
ATOM     14  C   UNL     1     -34.461   8.048 -10.340  0.00  0.00    +0.000 A 
ATOM     15  C   UNL     1     -33.271   8.078  -9.624  0.00  0.00    +0.000 A 
ATOM     16  C   UNL     1     -33.187   7.394  -8.417  0.00  0.00    +0.000 A 
ATOM     17  C   UNL     1     -34.178   6.532  -8.018  0.00  0.00    +0.000 A 
ATOM     18 CL   UNL     1     -33.883   5.189  -6.917  0.00  0.00    +0.000 Cl
BRANCH  12  20
ATOM     19  C   UNL     1     -37.792   6.044  -8.787  0.00  0.00    +0.000 C 
ATOM     20  O   UNL     1     -36.515   5.914  -8.175  0.00  0.00    +0.000 OA
ENDBRANCH  12  20
BRANCH  14  21
ATOM     21  O   UNL     1     -34.307   8.176 -11.727  0.00  0.00    +0.000 OA
ATOM     22  C   UNL     1     -35.111   9.019 -12.514  0.00  0.00    +0.000 C 
ENDBRANCH  14  21
ENDBRANCH   1  15
BRANCH   2  23
ATOM     23  C   UNL     1     -30.992  10.270 -11.504  0.00  0.00    +0.000 C 
ATOM     24  N   UNL     1     -30.355  11.063 -12.078  0.00  0.00    +0.000 NA
ENDBRANCH   2  23
TORSDOF 5
ENDMDL
