MODEL 1
REMARK VINA RESULT:      -6.7      0.000      0.000
REMARK  Name = 
REMARK  5 active torsions:
REMARK  status: ('A' for Active; 'I' for Inactive)
REMARK    1  A    between atoms: O_2  and  C_3
REMARK    2  A    between atoms: C_6  and  C_7
REMARK    3  A    between atoms: C_8  and  C_9
REMARK    4  A    between atoms: C_8  and  C_11
REMARK    5  A    between atoms: C_20  and  O_21
REMARK                            x       y       z     vdW  Elec       q    Type
REMARK                         _______ _______ _______ _____ _____    ______ ____
ROOT
ATOM      1  C   UNL     1     -31.195  -4.337  -3.721  0.00  0.00    +0.000 C 
ATOM      2  C   UNL     1     -32.107  -4.692  -2.841  0.00  0.00    +0.000 C 
ENDROOT
BRANCH   2   3
ATOM      3  C   UNL     1     -33.287  -5.381  -3.381  0.00  0.00    +0.000 A 
ATOM      4  C   UNL     1     -34.510  -4.739  -3.507  0.00  0.00    +0.000 A 
ATOM      5  C   UNL     1     -35.689  -5.408  -3.744  0.00  0.00    +0.000 A 
ATOM      6  C   UNL     1     -35.680  -6.785  -3.580  0.00  0.00    +0.000 A 
ATOM      7  C   UNL     1     -34.549  -7.442  -3.124  0.00  0.00    +0.000 A 
ATOM      8  C   UNL     1     -33.351  -6.763  -3.260  0.00  0.00    +0.000 A 
ATOM      9  O   UNL     1     -34.958  -8.655  -2.597  0.00  0.00    +0.000 OA
ATOM     10  C   UNL     1     -36.180  -9.003  -3.226  0.00  0.00    +0.000 C 
ATOM     11  O   UNL     1     -36.673  -7.744  -3.675  0.00  0.00    +0.000 OA
ENDBRANCH   2   3
BRANCH   1  15
ATOM     12  C   UNL     1     -33.617  -3.580  -6.961  0.00  0.00    +0.000 A 
ATOM     13  C   UNL     1     -33.590  -2.630  -5.957  0.00  0.00    +0.000 A 
ATOM     14  C   UNL     1     -32.662  -2.718  -4.929  0.00  0.00    +0.000 A 
ATOM     15  C   UNL     1     -31.644  -3.663  -4.947  0.00  0.00    +0.000 A 
ATOM     16  C   UNL     1     -31.476  -4.332  -6.153  0.00  0.00    +0.000 A 
ATOM     17  C   UNL     1     -32.431  -4.280  -7.160  0.00  0.00    +0.000 A 
BRANCH  12  19
ATOM     18  C   UNL     1     -36.083  -3.655  -7.034  0.00  0.00    +0.000 C 
ATOM     19  O   UNL     1     -34.819  -4.092  -7.459  0.00  0.00    +0.000 OA
ENDBRANCH  12  19
BRANCH  16  20
ATOM     20  O   UNL     1     -30.300  -5.047  -6.336  0.00  0.00    +0.000 OA
ATOM     21  C   UNL     1     -29.076  -4.446  -6.702  0.00  0.00    +0.000 C 
ENDBRANCH  16  20
ENDBRANCH   1  15
BRANCH   2  22
ATOM     22  C   UNL     1     -31.724  -4.816  -1.453  0.00  0.00    +0.000 C 
ATOM     23  N   UNL     1     -31.773  -4.911  -0.291  0.00  0.00    +0.000 NA
ENDBRANCH   2  22
TORSDOF 5
ENDMDL
MODEL 2
REMARK VINA RESULT:      -6.1     13.556     16.223
REMARK  Name = 
REMARK  5 active torsions:
REMARK  status: ('A' for Active; 'I' for Inactive)
REMARK    1  A    between atoms: O_2  and  C_3
REMARK    2  A    between atoms: C_6  and  C_7
REMARK    3  A    between atoms: C_8  and  C_9
REMARK    4  A    between atoms: C_8  and  C_11
REMARK    5  A    between atoms: C_20  and  O_21
REMARK                            x       y       z     vdW  Elec       q    Type
REMARK                         _______ _______ _______ _____ _____    ______ ____
ROOT
ATOM      1  C   UNL     1     -23.543   5.840   0.265  0.00  0.00    +0.000 C 
ATOM      2  C   UNL     1     -22.772   6.147  -0.758  0.00  0.00    +0.000 C 
ENDROOT
BRANCH   2   3
ATOM      3  C   UNL     1     -23.321   7.129  -1.703  0.00  0.00    +0.000 A 
ATOM      4  C   UNL     1     -23.701   6.769  -2.987  0.00  0.00    +0.000 A 
ATOM      5  C   UNL     1     -23.956   7.686  -3.980  0.00  0.00    +0.000 A 
ATOM      6  C   UNL     1     -23.555   8.994  -3.752  0.00  0.00    +0.000 A 
ATOM      7  C   UNL     1     -22.860   9.338  -2.605  0.00  0.00    +0.000 A 
ATOM      8  C   UNL     1     -22.969   8.463  -1.539  0.00  0.00    +0.000 A 
ATOM      9  O   UNL     1     -22.182  10.516  -2.868  0.00  0.00    +0.000 OA
ATOM     10  C   UNL     1     -22.881  11.189  -3.900  0.00  0.00    +0.000 C 
ATOM     11  O   UNL     1     -23.599  10.135  -4.535  0.00  0.00    +0.000 OA
ENDBRANCH   2   3
BRANCH   1  15
ATOM     12  C   UNL     1     -27.411   4.727   1.124  0.00  0.00    +0.000 A 
ATOM     13  C   UNL     1     -27.199   6.043   0.758  0.00  0.00    +0.000 A 
ATOM     14  C   UNL     1     -25.964   6.449   0.272  0.00  0.00    +0.000 A 
ATOM     15  C   UNL     1     -24.955   5.535  -0.003  0.00  0.00    +0.000 A 
ATOM     16  C   UNL     1     -25.343   4.201   0.006  0.00  0.00    +0.000 A 
ATOM     17  C   UNL     1     -26.560   3.795   0.540  0.00  0.00    +0.000 A 
BRANCH  12  19
ATOM     18  C   UNL     1     -27.879   3.233   3.033  0.00  0.00    +0.000 C 
ATOM     19  O   UNL     1     -28.128   4.388   2.276  0.00  0.00    +0.000 OA
ENDBRANCH  12  19
BRANCH  16  20
ATOM     20  O   UNL     1     -24.479   3.273  -0.559  0.00  0.00    +0.000 OA
ATOM     21  C   UNL     1     -24.831   1.926  -0.791  0.00  0.00    +0.000 C 
ENDBRANCH  16  20
ENDBRANCH   1  15
BRANCH   2  22
ATOM     22  C   UNL     1     -21.352   5.899  -0.657  0.00  0.00    +0.000 C 
ATOM     23  N   UNL     1     -20.221   6.008  -0.390  0.00  0.00    +0.000 NA
ENDBRANCH   2  22
TORSDOF 5
ENDMDL
MODEL 3
REMARK VINA RESULT:      -6.0      1.830      2.020
REMARK  Name = 
REMARK  5 active torsions:
REMARK  status: ('A' for Active; 'I' for Inactive)
REMARK    1  A    between atoms: O_2  and  C_3
REMARK    2  A    between atoms: C_6  and  C_7
REMARK    3  A    between atoms: C_8  and  C_9
REMARK    4  A    between atoms: C_8  and  C_11
REMARK    5  A    between atoms: C_20  and  O_21
REMARK                            x       y       z     vdW  Elec       q    Type
REMARK                         _______ _______ _______ _____ _____    ______ ____
ROOT
ATOM      1  C   UNL     1     -31.908  -5.629  -3.668  0.00  0.00    +0.000 C 
ATOM      2  C   UNL     1     -32.928  -6.313  -3.192  0.00  0.00    +0.000 C 
ENDROOT
BRANCH   2   3
ATOM      3  C   UNL     1     -34.038  -6.544  -4.127  0.00  0.00    +0.000 A 
ATOM      4  C   UNL     1     -35.358  -6.336  -3.756  0.00  0.00    +0.000 A 
ATOM      5  C   UNL     1     -36.426  -6.795  -4.491  0.00  0.00    +0.000 A 
ATOM      6  C   UNL     1     -36.159  -7.722  -5.487  0.00  0.00    +0.000 A 
ATOM      7  C   UNL     1     -34.879  -8.218  -5.676  0.00  0.00    +0.000 A 
ATOM      8  C   UNL     1     -33.846  -7.458  -5.157  0.00  0.00    +0.000 A 
ATOM      9  O   UNL     1     -34.997  -9.425  -6.343  0.00  0.00    +0.000 OA
ATOM     10  C   UNL     1     -36.217  -9.398  -7.062  0.00  0.00    +0.000 C 
ATOM     11  O   UNL     1     -36.977  -8.420  -6.358  0.00  0.00    +0.000 OA
ENDBRANCH   2   3
BRANCH   1  15
ATOM     12  C   UNL     1     -33.990  -3.103  -6.163  0.00  0.00    +0.000 A 
ATOM     13  C   UNL     1     -33.942  -2.768  -4.822  0.00  0.00    +0.000 A 
ATOM     14  C   UNL     1     -33.108  -3.458  -3.953  0.00  0.00    +0.000 A 
ATOM     15  C   UNL     1     -32.193  -4.396  -4.415  0.00  0.00    +0.000 A 
ATOM     16  C   UNL     1     -32.004  -4.414  -5.791  0.00  0.00    +0.000 A 
ATOM     17  C   UNL     1     -32.871  -3.762  -6.659  0.00  0.00    +0.000 A 
BRANCH  12  19
ATOM     18  C   UNL     1     -35.790  -4.349  -7.303  0.00  0.00    +0.000 C 
ATOM     19  O   UNL     1     -35.198  -3.154  -6.866  0.00  0.00    +0.000 OA
ENDBRANCH  12  19
BRANCH  16  20
ATOM     20  O   UNL     1     -30.897  -5.092  -6.282  0.00  0.00    +0.000 OA
ATOM     21  C   UNL     1     -29.621  -4.503  -6.414  0.00  0.00    +0.000 C 
ENDBRANCH  16  20
ENDBRANCH   1  15
BRANCH   2  22
ATOM     22  C   UNL     1     -32.723  -7.150  -2.032  0.00  0.00    +0.000 C 
ATOM     23  N   UNL     1     -32.908  -7.749  -1.048  0.00  0.00    +0.000 NA
ENDBRANCH   2  22
TORSDOF 5
ENDMDL
MODEL 4
REMARK VINA RESULT:      -6.0     13.790     16.369
REMARK  Name = 
REMARK  5 active torsions:
REMARK  status: ('A' for Active; 'I' for Inactive)
REMARK    1  A    between atoms: O_2  and  C_3
REMARK    2  A    between atoms: C_6  and  C_7
REMARK    3  A    between atoms: C_8  and  C_9
REMARK    4  A    between atoms: C_8  and  C_11
REMARK    5  A    between atoms: C_20  and  O_21
REMARK                            x       y       z     vdW  Elec       q    Type
REMARK                         _______ _______ _______ _____ _____    ______ ____
ROOT
ATOM      1  C   UNL     1     -23.380   5.813   0.331  0.00  0.00    +0.000 C 
ATOM      2  C   UNL     1     -22.662   6.106  -0.733  0.00  0.00    +0.000 C 
ENDROOT
BRANCH   2   3
ATOM      3  C   UNL     1     -23.285   7.027  -1.694  0.00  0.00    +0.000 A 
ATOM      4  C   UNL     1     -23.705   6.599  -2.944  0.00  0.00    +0.000 A 
ATOM      5  C   UNL     1     -24.034   7.464  -3.963  0.00  0.00    +0.000 A 
ATOM      6  C   UNL     1     -23.671   8.793  -3.807  0.00  0.00    +0.000 A 
ATOM      7  C   UNL     1     -22.942   9.210  -2.706  0.00  0.00    +0.000 A 
ATOM      8  C   UNL     1     -22.974   8.378  -1.601  0.00  0.00    +0.000 A 
ATOM      9  O   UNL     1     -22.318  10.397  -3.047  0.00  0.00    +0.000 OA
ATOM     10  C   UNL     1     -23.083  11.001  -4.076  0.00  0.00    +0.000 C 
ATOM     11  O   UNL     1     -23.789   9.896  -4.634  0.00  0.00    +0.000 OA
ENDBRANCH   2   3
BRANCH   1  15
ATOM     12  C   UNL     1     -26.978   5.513  -1.644  0.00  0.00    +0.000 A 
ATOM     13  C   UNL     1     -26.275   4.341  -1.431  0.00  0.00    +0.000 A 
ATOM     14  C   UNL     1     -25.154   4.331  -0.612  0.00  0.00    +0.000 A 
ATOM     15  C   UNL     1     -24.788   5.445   0.133  0.00  0.00    +0.000 A 
ATOM     16  C   UNL     1     -25.736   6.459   0.190  0.00  0.00    +0.000 A 
ATOM     17  C   UNL     1     -26.830   6.490  -0.666  0.00  0.00    +0.000 A 
BRANCH  12  19
ATOM     18  C   UNL     1     -27.759   7.179  -3.289  0.00  0.00    +0.000 C 
ATOM     19  O   UNL     1     -27.463   5.861  -2.908  0.00  0.00    +0.000 OA
ENDBRANCH  12  19
BRANCH  16  20
ATOM     20  O   UNL     1     -25.572   7.444   1.155  0.00  0.00    +0.000 OA
ATOM     21  C   UNL     1     -26.028   7.311   2.485  0.00  0.00    +0.000 C 
ENDBRANCH  16  20
ENDBRANCH   1  15
BRANCH   2  22
ATOM     22  C   UNL     1     -21.230   5.915  -0.681  0.00  0.00    +0.000 C 
ATOM     23  N   UNL     1     -20.129   5.869  -0.298  0.00  0.00    +0.000 NA
ENDBRANCH   2  22
TORSDOF 5
ENDMDL
MODEL 5
REMARK VINA RESULT:      -5.9     15.313     17.911
REMARK  Name = 
REMARK  5 active torsions:
REMARK  status: ('A' for Active; 'I' for Inactive)
REMARK    1  A    between atoms: O_2  and  C_3
REMARK    2  A    between atoms: C_6  and  C_7
REMARK    3  A    between atoms: C_8  and  C_9
REMARK    4  A    between atoms: C_8  and  C_11
REMARK    5  A    between atoms: C_20  and  O_21
REMARK                            x       y       z     vdW  Elec       q    Type
REMARK                         _______ _______ _______ _____ _____    ______ ____
ROOT
ATOM      1  C   UNL     1     -23.839   6.675  -3.390  0.00  0.00    +0.000 C 
ATOM      2  C   UNL     1     -24.167   7.915  -3.688  0.00  0.00    +0.000 C 
ENDROOT
BRANCH   2   3
ATOM      3  C   UNL     1     -23.937   8.911  -2.632  0.00  0.00    +0.000 A 
ATOM      4  C   UNL     1     -24.980   9.634  -2.074  0.00  0.00    +0.000 A 
ATOM      5  C   UNL     1     -24.788  10.752  -1.296  0.00  0.00    +0.000 A 
ATOM      6  C   UNL     1     -23.521  11.316  -1.299  0.00  0.00    +0.000 A 
ATOM      7  C   UNL     1     -22.519  10.815  -2.113  0.00  0.00    +0.000 A 
ATOM      8  C   UNL     1     -22.689   9.519  -2.566  0.00  0.00    +0.000 A 
ATOM      9  O   UNL     1     -21.584  11.821  -2.287  0.00  0.00    +0.000 OA
ATOM     10  C   UNL     1     -21.679  12.689  -1.171  0.00  0.00    +0.000 C 
ATOM     11  O   UNL     1     -23.000  12.446  -0.694  0.00  0.00    +0.000 OA
ENDBRANCH   2   3
BRANCH   1  15
ATOM     12  C   UNL     1     -24.983   6.765   0.563  0.00  0.00    +0.000 A 
ATOM     13  C   UNL     1     -25.953   6.443  -0.368  0.00  0.00    +0.000 A 
ATOM     14  C   UNL     1     -25.609   6.207  -1.692  0.00  0.00    +0.000 A 
ATOM     15  C   UNL     1     -24.281   6.137  -2.096  0.00  0.00    +0.000 A 
ATOM     16  C   UNL     1     -23.349   6.075  -1.068  0.00  0.00    +0.000 A 
ATOM     17  C   UNL     1     -23.689   6.362   0.248  0.00  0.00    +0.000 A 
BRANCH  12  19
ATOM     18  C   UNL     1     -24.280   8.798   1.774  0.00  0.00    +0.000 C 
ATOM     19  O   UNL     1     -25.187   7.756   1.528  0.00  0.00    +0.000 OA
ENDBRANCH  12  19
BRANCH  16  20
ATOM     20  O   UNL     1     -22.055   5.692  -1.392  0.00  0.00    +0.000 OA
ATOM     21  C   UNL     1     -20.917   6.117  -0.673  0.00  0.00    +0.000 C 
ENDBRANCH  16  20
ENDBRANCH   1  15
BRANCH   2  22
ATOM     22  C   UNL     1     -24.270   8.292  -5.079  0.00  0.00    +0.000 C 
ATOM     23  N   UNL     1     -24.010   8.487  -6.200  0.00  0.00    +0.000 NA
ENDBRANCH   2  22
TORSDOF 5
ENDMDL
MODEL 6
REMARK VINA RESULT:      -5.9     14.431     16.194
REMARK  Name = 
REMARK  5 active torsions:
REMARK  status: ('A' for Active; 'I' for Inactive)
REMARK    1  A    between atoms: O_2  and  C_3
REMARK    2  A    between atoms: C_6  and  C_7
REMARK    3  A    between atoms: C_8  and  C_9
REMARK    4  A    between atoms: C_8  and  C_11
REMARK    5  A    between atoms: C_20  and  O_21
REMARK                            x       y       z     vdW  Elec       q    Type
REMARK                         _______ _______ _______ _____ _____    ______ ____
ROOT
ATOM      1  C   UNL     1     -23.479   9.174  -4.937  0.00  0.00    +0.000 C 
ATOM      2  C   UNL     1     -23.544   9.044  -3.628  0.00  0.00    +0.000 C 
ENDROOT
BRANCH   2   3
ATOM      3  C   UNL     1     -24.116   7.783  -3.136  0.00  0.00    +0.000 A 
ATOM      4  C   UNL     1     -25.439   7.692  -2.733  0.00  0.00    +0.000 A 
ATOM      5  C   UNL     1     -25.936   6.626  -2.019  0.00  0.00    +0.000 A 
ATOM      6  C   UNL     1     -25.014   5.752  -1.461  0.00  0.00    +0.000 A 
ATOM      7  C   UNL     1     -23.654   5.992  -1.559  0.00  0.00    +0.000 A 
ATOM      8  C   UNL     1     -23.255   6.852  -2.567  0.00  0.00    +0.000 A 
ATOM      9  O   UNL     1     -23.035   5.290  -0.539  0.00  0.00    +0.000 OA
ATOM     10  C   UNL     1     -23.876   4.202  -0.199  0.00  0.00    +0.000 C 
ATOM     11  O   UNL     1     -25.154   4.636  -0.656  0.00  0.00    +0.000 OA
ENDBRANCH   2   3
BRANCH   1  15
ATOM     12  C   UNL     1     -26.021   9.195  -8.173  0.00  0.00    +0.000 A 
ATOM     13  C   UNL     1     -25.353   8.014  -7.902  0.00  0.00    +0.000 A 
ATOM     14  C   UNL     1     -24.630   7.868  -6.727  0.00  0.00    +0.000 A 
ATOM     15  C   UNL     1     -24.670   8.830  -5.724  0.00  0.00    +0.000 A 
ATOM     16  C   UNL     1     -25.652   9.801  -5.871  0.00  0.00    +0.000 A 
ATOM     17  C   UNL     1     -26.339   9.974  -7.066  0.00  0.00    +0.000 A 
BRANCH  12  19
ATOM     18  C   UNL     1     -27.170  10.264 -10.078  0.00  0.00    +0.000 C 
ATOM     19  O   UNL     1     -26.019   9.766  -9.450  0.00  0.00    +0.000 OA
ENDBRANCH  12  19
BRANCH  16  20
ATOM     20  O   UNL     1     -25.951  10.590  -4.769  0.00  0.00    +0.000 OA
ATOM     21  C   UNL     1     -27.228  10.636  -4.170  0.00  0.00    +0.000 C 
ENDBRANCH  16  20
ENDBRANCH   1  15
BRANCH   2  22
ATOM     22  C   UNL     1     -22.683   9.861  -2.803  0.00  0.00    +0.000 C 
ATOM     23  N   UNL     1     -22.160  10.340  -1.877  0.00  0.00    +0.000 NA
ENDBRANCH   2  22
TORSDOF 5
ENDMDL
MODEL 7
REMARK VINA RESULT:      -5.9     14.443     16.675
REMARK  Name = 
REMARK  5 active torsions:
REMARK  status: ('A' for Active; 'I' for Inactive)
REMARK    1  A    between atoms: O_2  and  C_3
REMARK    2  A    between atoms: C_6  and  C_7
REMARK    3  A    between atoms: C_8  and  C_9
REMARK    4  A    between atoms: C_8  and  C_11
REMARK    5  A    between atoms: C_20  and  O_21
REMARK                            x       y       z     vdW  Elec       q    Type
REMARK                         _______ _______ _______ _____ _____    ______ ____
ROOT
ATOM      1  C   UNL     1     -24.943   9.809  -4.119  0.00  0.00    +0.000 C 
ATOM      2  C   UNL     1     -24.888   9.395  -2.870  0.00  0.00    +0.000 C 
ENDROOT
BRANCH   2   3
ATOM      3  C   UNL     1     -23.983   8.267  -2.608  0.00  0.00    +0.000 A 
ATOM      4  C   UNL     1     -24.464   7.015  -2.256  0.00  0.00    +0.000 A 
ATOM      5  C   UNL     1     -23.664   6.021  -1.741  0.00  0.00    +0.000 A 
ATOM      6  C   UNL     1     -22.396   6.385  -1.315  0.00  0.00    +0.000 A 
ATOM      7  C   UNL     1     -21.987   7.708  -1.339  0.00  0.00    +0.000 A 
ATOM      8  C   UNL     1     -22.691   8.550  -2.181  0.00  0.00    +0.000 A 
ATOM      9  O   UNL     1     -20.946   7.836  -0.436  0.00  0.00    +0.000 OA
ATOM     10  C   UNL     1     -20.338   6.563  -0.301  0.00  0.00    +0.000 C 
ATOM     11  O   UNL     1     -21.374   5.675  -0.709  0.00  0.00    +0.000 OA
ENDBRANCH   2   3
BRANCH   1  15
ATOM     12  C   UNL     1     -25.526   8.363  -7.928  0.00  0.00    +0.000 A 
ATOM     13  C   UNL     1     -24.269   8.197  -7.374  0.00  0.00    +0.000 A 
ATOM     14  C   UNL     1     -24.046   8.483  -6.035  0.00  0.00    +0.000 A 
ATOM     15  C   UNL     1     -25.091   8.799  -5.175  0.00  0.00    +0.000 A 
ATOM     16  C   UNL     1     -26.365   8.571  -5.680  0.00  0.00    +0.000 A 
ATOM     17  C   UNL     1     -26.588   8.334  -7.030  0.00  0.00    +0.000 A 
BRANCH  12  19
ATOM     18  C   UNL     1     -26.928   8.917  -9.882  0.00  0.00    +0.000 C 
ATOM     19  O   UNL     1     -25.703   8.920  -9.198  0.00  0.00    +0.000 OA
ENDBRANCH  12  19
BRANCH  16  20
ATOM     20  O   UNL     1     -27.424   8.564  -4.782  0.00  0.00    +0.000 OA
ATOM     21  C   UNL     1     -28.242   7.437  -4.555  0.00  0.00    +0.000 C 
ENDBRANCH  16  20
ENDBRANCH   1  15
BRANCH   2  22
ATOM     22  C   UNL     1     -25.307  10.294  -1.819  0.00  0.00    +0.000 C 
ATOM     23  N   UNL     1     -25.347  11.195  -1.079  0.00  0.00    +0.000 NA
ENDBRANCH   2  22
TORSDOF 5
ENDMDL
MODEL 8
REMARK VINA RESULT:      -5.8      3.315      5.921
REMARK  Name = 
REMARK  5 active torsions:
REMARK  status: ('A' for Active; 'I' for Inactive)
REMARK    1  A    between atoms: O_2  and  C_3
REMARK    2  A    between atoms: C_6  and  C_7
REMARK    3  A    between atoms: C_8  and  C_9
REMARK    4  A    between atoms: C_8  and  C_11
REMARK    5  A    between atoms: C_20  and  O_21
REMARK                            x       y       z     vdW  Elec       q    Type
REMARK                         _______ _______ _______ _____ _____    ______ ____
ROOT
ATOM      1  C   UNL     1     -36.064  -4.552  -5.740  0.00  0.00    +0.000 C 
ATOM      2  C   UNL     1     -35.160  -5.234  -6.412  0.00  0.00    +0.000 C 
ENDROOT
BRANCH   2   3
ATOM      3  C   UNL     1     -33.817  -4.641  -6.466  0.00  0.00    +0.000 A 
ATOM      4  C   UNL     1     -33.186  -4.376  -7.672  0.00  0.00    +0.000 A 
ATOM      5  C   UNL     1     -31.846  -4.085  -7.771  0.00  0.00    +0.000 A 
ATOM      6  C   UNL     1     -31.060  -4.332  -6.655  0.00  0.00    +0.000 A 
ATOM      7  C   UNL     1     -31.595  -4.918  -5.521  0.00  0.00    +0.000 A 
ATOM      8  C   UNL     1     -32.970  -4.841  -5.383  0.00  0.00    +0.000 A 
ATOM      9  O   UNL     1     -30.548  -5.483  -4.812  0.00  0.00    +0.000 OA
ATOM     10  C   UNL     1     -29.369  -4.778  -5.160  0.00  0.00    +0.000 C 
ATOM     11  O   UNL     1     -29.700  -4.213  -6.425  0.00  0.00    +0.000 OA
ENDBRANCH   2   3
BRANCH   1  15
ATOM     12  C   UNL     1     -37.807  -0.823  -5.771  0.00  0.00    +0.000 A 
ATOM     13  C   UNL     1     -36.734  -1.012  -4.920  0.00  0.00    +0.000 A 
ATOM     14  C   UNL     1     -35.976  -2.173  -4.988  0.00  0.00    +0.000 A 
ATOM     15  C   UNL     1     -36.169  -3.109  -5.996  0.00  0.00    +0.000 A 
ATOM     16  C   UNL     1     -36.981  -2.694  -7.044  0.00  0.00    +0.000 A 
ATOM     17  C   UNL     1     -37.775  -1.558  -6.952  0.00  0.00    +0.000 A 
BRANCH  12  19
ATOM     18  C   UNL     1     -39.713   0.725  -6.020  0.00  0.00    +0.000 C 
ATOM     19  O   UNL     1     -39.013  -0.274  -5.326  0.00  0.00    +0.000 OA
ENDBRANCH  12  19
BRANCH  16  20
ATOM     20  O   UNL     1     -36.960  -3.444  -8.213  0.00  0.00    +0.000 OA
ATOM     21  C   UNL     1     -38.124  -3.956  -8.826  0.00  0.00    +0.000 C 
ENDBRANCH  16  20
ENDBRANCH   1  15
BRANCH   2  22
ATOM     22  C   UNL     1     -35.378  -6.646  -6.634  0.00  0.00    +0.000 C 
ATOM     23  N   UNL     1     -35.783  -7.736  -6.539  0.00  0.00    +0.000 NA
ENDBRANCH   2  22
TORSDOF 5
ENDMDL
MODEL 9
REMARK VINA RESULT:      -5.8      2.833      5.675
REMARK  Name = 
REMARK  5 active torsions:
REMARK  status: ('A' for Active; 'I' for Inactive)
REMARK    1  A    between atoms: O_2  and  C_3
REMARK    2  A    between atoms: C_6  and  C_7
REMARK    3  A    between atoms: C_8  and  C_9
REMARK    4  A    between atoms: C_8  and  C_11
REMARK    5  A    between atoms: C_20  and  O_21
REMARK                            x       y       z     vdW  Elec       q    Type
REMARK                         _______ _______ _______ _____ _____    ______ ____
ROOT
ATOM      1  C   UNL     1     -34.574  -5.023  -4.741  0.00  0.00    +0.000 C 
ATOM      2  C   UNL     1     -35.744  -4.477  -4.480  0.00  0.00    +0.000 C 
ENDROOT
BRANCH   2   3
ATOM      3  C   UNL     1     -35.922  -3.092  -4.937  0.00  0.00    +0.000 A 
ATOM      4  C   UNL     1     -36.297  -2.080  -4.066  0.00  0.00    +0.000 A 
ATOM      5  C   UNL     1     -36.737  -0.848  -4.490  0.00  0.00    +0.000 A 
ATOM      6  C   UNL     1     -37.066  -0.720  -5.831  0.00  0.00    +0.000 A 
ATOM      7  C   UNL     1     -37.023  -1.810  -6.684  0.00  0.00    +0.000 A 
ATOM      8  C   UNL     1     -36.248  -2.879  -6.271  0.00  0.00    +0.000 A 
ATOM      9  O   UNL     1     -37.842  -1.525  -7.763  0.00  0.00    +0.000 OA
ATOM     10  C   UNL     1     -37.916  -0.115  -7.882  0.00  0.00    +0.000 C 
ATOM     11  O   UNL     1     -37.581   0.331  -6.570  0.00  0.00    +0.000 OA
ENDBRANCH   2   3
BRANCH   1  15
ATOM     12  C   UNL     1     -30.580  -4.034  -4.823  0.00  0.00    +0.000 A 
ATOM     13  C   UNL     1     -31.451  -3.198  -5.496  0.00  0.00    +0.000 A 
ATOM     14  C   UNL     1     -32.824  -3.353  -5.359  0.00  0.00    +0.000 A 
ATOM     15  C   UNL     1     -33.367  -4.242  -4.439  0.00  0.00    +0.000 A 
ATOM     16  C   UNL     1     -32.468  -4.768  -3.520  0.00  0.00    +0.000 A 
ATOM     17  C   UNL     1     -31.094  -4.652  -3.688  0.00  0.00    +0.000 A 
BRANCH  12  19
ATOM     18  C   UNL     1     -29.097  -4.315  -6.776  0.00  0.00    +0.000 C 
ATOM     19  O   UNL     1     -29.430  -4.545  -5.433  0.00  0.00    +0.000 OA
ENDBRANCH  12  19
BRANCH  16  20
ATOM     20  O   UNL     1     -32.988  -5.403  -2.399  0.00  0.00    +0.000 OA
ATOM     21  C   UNL     1     -32.564  -6.676  -1.963  0.00  0.00    +0.000 C 
ENDBRANCH  16  20
ENDBRANCH   1  15
BRANCH   2  22
ATOM     22  C   UNL     1     -36.872  -5.341  -4.216  0.00  0.00    +0.000 C 
ATOM     23  N   UNL     1     -37.776  -5.858  -3.690  0.00  0.00    +0.000 NA
ENDBRANCH   2  22
TORSDOF 5
ENDMDL
MODEL 10
REMARK VINA RESULT:      -5.8     14.737     17.474
REMARK  Name = 
REMARK  5 active torsions:
REMARK  status: ('A' for Active; 'I' for Inactive)
REMARK    1  A    between atoms: O_2  and  C_3
REMARK    2  A    between atoms: C_6  and  C_7
REMARK    3  A    between atoms: C_8  and  C_9
REMARK    4  A    between atoms: C_8  and  C_11
REMARK    5  A    between atoms: C_20  and  O_21
REMARK                            x       y       z     vdW  Elec       q    Type
REMARK                         _______ _______ _______ _____ _____    ______ ____
ROOT
ATOM      1  C   UNL     1     -23.744   7.010  -3.410  0.00  0.00    +0.000 C 
ATOM      2  C   UNL     1     -24.109   8.247  -3.674  0.00  0.00    +0.000 C 
ENDROOT
BRANCH   2   3
ATOM      3  C   UNL     1     -23.862   9.230  -2.610  0.00  0.00    +0.000 A 
ATOM      4  C   UNL     1     -24.892   9.965  -2.044  0.00  0.00    +0.000 A 
ATOM      5  C   UNL     1     -24.680  11.073  -1.256  0.00  0.00    +0.000 A 
ATOM      6  C   UNL     1     -23.405  11.618  -1.259  0.00  0.00    +0.000 A 
ATOM      7  C   UNL     1     -22.413  11.109  -2.080  0.00  0.00    +0.000 A 
ATOM      8  C   UNL     1     -22.605   9.819  -2.544  0.00  0.00    +0.000 A 
ATOM      9  O   UNL     1     -21.463  12.102  -2.248  0.00  0.00    +0.000 OA
ATOM     10  C   UNL     1     -21.542  12.962  -1.125  0.00  0.00    +0.000 C 
ATOM     11  O   UNL     1     -22.865  12.734  -0.646  0.00  0.00    +0.000 OA
ENDBRANCH   2   3
BRANCH   1  15
ATOM     12  C   UNL     1     -24.381   4.074  -0.596  0.00  0.00    +0.000 A 
ATOM     13  C   UNL     1     -23.334   4.950  -0.370  0.00  0.00    +0.000 A 
ATOM     14  C   UNL     1     -23.172   6.075  -1.167  0.00  0.00    +0.000 A 
ATOM     15  C   UNL     1     -24.124   6.441  -2.110  0.00  0.00    +0.000 A 
ATOM     16  C   UNL     1     -25.333   5.761  -2.030  0.00  0.00    +0.000 A 
ATOM     17  C   UNL     1     -25.476   4.607  -1.270  0.00  0.00    +0.000 A 
BRANCH  12  19
ATOM     18  C   UNL     1     -25.006   1.775  -1.240  0.00  0.00    +0.000 C 
ATOM     19  O   UNL     1     -24.209   2.688  -0.533  0.00  0.00    +0.000 OA
ENDBRANCH  12  19
BRANCH  16  20
ATOM     20  O   UNL     1     -26.417   6.285  -2.721  0.00  0.00    +0.000 OA
ATOM     21  C   UNL     1     -27.374   7.139  -2.132  0.00  0.00    +0.000 C 
ENDBRANCH  16  20
ENDBRANCH   1  15
BRANCH   2  22
ATOM     22  C   UNL     1     -24.275   8.645  -5.054  0.00  0.00    +0.000 C 
ATOM     23  N   UNL     1     -24.693   9.137  -6.026  0.00  0.00    +0.000 NA
ENDBRANCH   2  22
TORSDOF 5
ENDMDL
