MODEL 1
REMARK VINA RESULT:      -5.5      0.000      0.000
REMARK  Name = 
REMARK  7 active torsions:
REMARK  status: ('A' for Active; 'I' for Inactive)
REMARK    1  A    between atoms: C_2  and  O_3
REMARK    2  A    between atoms: O_3  and  C_4
REMARK    3  A    between atoms: C_7  and  C_8
REMARK    4  A    between atoms: C_9  and  C_10
REMARK    5  A    between atoms: C_9  and  C_12
REMARK    6  A    between atoms: C_21  and  O_22
REMARK    7  A    between atoms: O_22  and  C_23
REMARK                            x       y       z     vdW  Elec       q    Type
REMARK                         _______ _______ _______ _____ _____    ______ ____
ROOT
ATOM      1  C   UNL     1     -22.223   8.680  -0.884  0.00  0.00    +0.000 C 
ATOM      2  C   UNL     1     -22.152   7.365  -0.748  0.00  0.00    +0.000 C 
ENDROOT
BRANCH   2   3
ATOM      3  C   UNL     1     -23.450   6.703  -0.564  0.00  0.00    +0.000 A 
ATOM      4  C   UNL     1     -23.964   6.435   0.698  0.00  0.00    +0.000 A 
ATOM      5  C   UNL     1     -24.510   5.198   1.016  0.00  0.00    +0.000 A 
ATOM      6  C   UNL     1     -24.714   4.253   0.017  0.00  0.00    +0.000 A 
ATOM      7  C   UNL     1     -24.712   4.758  -1.278  0.00  0.00    +0.000 A 
ATOM      8  C   UNL     1     -23.909   5.856  -1.565  0.00  0.00    +0.000 A 
ATOM      9  O   UNL     1     -25.053   3.676  -2.097  0.00  0.00    +0.000 OA
ATOM     10  C   UNL     1     -25.350   2.543  -1.324  0.00  0.00    +0.000 C 
ATOM     11  O   UNL     1     -24.871   2.886  -0.033  0.00  0.00    +0.000 OA
ENDBRANCH   2   3
BRANCH   1  15
ATOM     12  C   UNL     1     -23.657  11.464  -3.513  0.00  0.00    +0.000 A 
ATOM     13  C   UNL     1     -23.255  10.244  -4.026  0.00  0.00    +0.000 A 
ATOM     14  C   UNL     1     -23.069   9.148  -3.192  0.00  0.00    +0.000 A 
ATOM     15  C   UNL     1     -23.196   9.247  -1.826  0.00  0.00    +0.000 A 
ATOM     16  C   UNL     1     -23.881  10.367  -1.371  0.00  0.00    +0.000 A 
ATOM     17  C   UNL     1     -24.165  11.431  -2.221  0.00  0.00    +0.000 A 
BRANCH  12  18
ATOM     18  O   UNL     1     -23.183  12.657  -4.065  0.00  0.00    +0.000 OA
BRANCH  18  20
ATOM     19  C   UNL     1     -21.512  13.729  -2.716  0.00  0.00    +0.000 C 
ATOM     20  C   UNL     1     -21.805  12.945  -3.963  0.00  0.00    +0.000 C 
ENDBRANCH  18  20
ENDBRANCH  12  18
BRANCH  16  21
ATOM     21  O   UNL     1     -24.322  10.401  -0.052  0.00  0.00    +0.000 OA
BRANCH  21  22
ATOM     22  C   UNL     1     -25.697  10.223   0.205  0.00  0.00    +0.000 C 
ATOM     23  C   UNL     1     -25.921   9.454   1.490  0.00  0.00    +0.000 C 
ENDBRANCH  21  22
ENDBRANCH  16  21
ENDBRANCH   1  15
BRANCH   2  24
ATOM     24  C   UNL     1     -20.902   6.681  -0.501  0.00  0.00    +0.000 C 
ATOM     25  N   UNL     1     -20.040   5.911  -0.340  0.00  0.00    +0.000 NA
ENDBRANCH   2  24
TORSDOF 7
ENDMDL
MODEL 2
REMARK VINA RESULT:      -5.4      2.420      7.385
REMARK  Name = 
REMARK  7 active torsions:
REMARK  status: ('A' for Active; 'I' for Inactive)
REMARK    1  A    between atoms: C_2  and  O_3
REMARK    2  A    between atoms: O_3  and  C_4
REMARK    3  A    between atoms: C_7  and  C_8
REMARK    4  A    between atoms: C_9  and  C_10
REMARK    5  A    between atoms: C_9  and  C_12
REMARK    6  A    between atoms: C_21  and  O_22
REMARK    7  A    between atoms: O_22  and  C_23
REMARK                            x       y       z     vdW  Elec       q    Type
REMARK                         _______ _______ _______ _____ _____    ______ ____
ROOT
ATOM      1  C   UNL     1     -23.803   5.369   0.076  0.00  0.00    +0.000 C 
ATOM      2  C   UNL     1     -23.007   6.232  -0.536  0.00  0.00    +0.000 C 
ENDROOT
BRANCH   2   3
ATOM      3  C   UNL     1     -23.703   7.177  -1.419  0.00  0.00    +0.000 A 
ATOM      4  C   UNL     1     -24.154   6.806  -2.679  0.00  0.00    +0.000 A 
ATOM      5  C   UNL     1     -23.934   7.602  -3.797  0.00  0.00    +0.000 A 
ATOM      6  C   UNL     1     -23.408   8.879  -3.645  0.00  0.00    +0.000 A 
ATOM      7  C   UNL     1     -23.499   9.404  -2.361  0.00  0.00    +0.000 A 
ATOM      8  C   UNL     1     -23.437   8.534  -1.278  0.00  0.00    +0.000 A 
ATOM      9  O   UNL     1     -23.033  10.718  -2.464  0.00  0.00    +0.000 OA
ATOM     10  C   UNL     1     -22.740  11.038  -3.798  0.00  0.00    +0.000 C 
ATOM     11  O   UNL     1     -22.745   9.777  -4.451  0.00  0.00    +0.000 OA
ENDBRANCH   2   3
BRANCH   1  15
ATOM     12  C   UNL     1     -26.907   5.204   2.733  0.00  0.00    +0.000 A 
ATOM     13  C   UNL     1     -25.896   6.114   2.983  0.00  0.00    +0.000 A 
ATOM     14  C   UNL     1     -24.990   6.463   1.989  0.00  0.00    +0.000 A 
ATOM     15  C   UNL     1     -25.009   5.866   0.750  0.00  0.00    +0.000 A 
ATOM     16  C   UNL     1     -26.187   5.202   0.426  0.00  0.00    +0.000 A 
ATOM     17  C   UNL     1     -27.150   4.934   1.393  0.00  0.00    +0.000 A 
BRANCH  12  18
ATOM     18  O   UNL     1     -27.325   4.318   3.730  0.00  0.00    +0.000 OA
BRANCH  18  20
ATOM     19  C   UNL     1     -28.708   2.536   4.551  0.00  0.00    +0.000 C 
ATOM     20  C   UNL     1     -28.084   3.189   3.352  0.00  0.00    +0.000 C 
ENDBRANCH  18  20
ENDBRANCH  12  18
BRANCH  16  21
ATOM     21  O   UNL     1     -26.417   4.836  -0.896  0.00  0.00    +0.000 OA
BRANCH  21  22
ATOM     22  C   UNL     1     -26.925   3.548  -1.161  0.00  0.00    +0.000 C 
ATOM     23  C   UNL     1     -25.812   2.524  -1.247  0.00  0.00    +0.000 C 
ENDBRANCH  21  22
ENDBRANCH  16  21
ENDBRANCH   1  15
BRANCH   2  24
ATOM     24  C   UNL     1     -21.571   6.068  -0.569  0.00  0.00    +0.000 C 
ATOM     25  N   UNL     1     -20.440   5.905  -0.333  0.00  0.00    +0.000 NA
ENDBRANCH   2  24
TORSDOF 7
ENDMDL
MODEL 3
REMARK VINA RESULT:      -5.4     16.603     19.421
REMARK  Name = 
REMARK  7 active torsions:
REMARK  status: ('A' for Active; 'I' for Inactive)
REMARK    1  A    between atoms: C_2  and  O_3
REMARK    2  A    between atoms: O_3  and  C_4
REMARK    3  A    between atoms: C_7  and  C_8
REMARK    4  A    between atoms: C_9  and  C_10
REMARK    5  A    between atoms: C_9  and  C_12
REMARK    6  A    between atoms: C_21  and  O_22
REMARK    7  A    between atoms: O_22  and  C_23
REMARK                            x       y       z     vdW  Elec       q    Type
REMARK                         _______ _______ _______ _____ _____    ______ ____
ROOT
ATOM      1  C   UNL     1     -19.423  -8.370   5.045  0.00  0.00    +0.000 C 
ATOM      2  C   UNL     1     -19.067  -9.579   4.640  0.00  0.00    +0.000 C 
ENDROOT
BRANCH   2   3
ATOM      3  C   UNL     1     -17.623  -9.747   4.431  0.00  0.00    +0.000 A 
ATOM      4  C   UNL     1     -17.043  -9.607   3.177  0.00  0.00    +0.000 A 
ATOM      5  C   UNL     1     -16.122 -10.528   2.691  0.00  0.00    +0.000 A 
ATOM      6  C   UNL     1     -15.627 -11.520   3.529  0.00  0.00    +0.000 A 
ATOM      7  C   UNL     1     -15.800 -11.283   4.887  0.00  0.00    +0.000 A 
ATOM      8  C   UNL     1     -16.918 -10.568   5.303  0.00  0.00    +0.000 A 
ATOM      9  O   UNL     1     -15.130 -12.326   5.534  0.00  0.00    +0.000 OA
ATOM     10  C   UNL     1     -14.476 -13.148   4.603  0.00  0.00    +0.000 C 
ATOM     11  O   UNL     1     -15.034 -12.751   3.360  0.00  0.00    +0.000 OA
ENDBRANCH   2   3
BRANCH   1  15
ATOM     12  C   UNL     1     -18.839  -5.649   8.042  0.00  0.00    +0.000 A 
ATOM     13  C   UNL     1     -19.098  -6.959   8.406  0.00  0.00    +0.000 A 
ATOM     14  C   UNL     1     -18.986  -7.989   7.480  0.00  0.00    +0.000 A 
ATOM     15  C   UNL     1     -18.694  -7.748   6.158  0.00  0.00    +0.000 A 
ATOM     16  C   UNL     1     -18.149  -6.498   5.887  0.00  0.00    +0.000 A 
ATOM     17  C   UNL     1     -18.163  -5.485   6.840  0.00  0.00    +0.000 A 
BRANCH  12  18
ATOM     18  O   UNL     1     -19.575  -4.600   8.599  0.00  0.00    +0.000 OA
BRANCH  18  20
ATOM     19  C   UNL     1     -18.923  -2.907  10.171  0.00  0.00    +0.000 C 
ATOM     20  C   UNL     1     -18.954  -3.339   8.733  0.00  0.00    +0.000 C 
ENDBRANCH  18  20
ENDBRANCH  12  18
BRANCH  16  21
ATOM     21  O   UNL     1     -17.546  -6.276   4.654  0.00  0.00    +0.000 OA
BRANCH  21  22
ATOM     22  C   UNL     1     -16.173  -5.955   4.622  0.00  0.00    +0.000 C 
ATOM     23  C   UNL     1     -15.484  -6.603   3.439  0.00  0.00    +0.000 C 
ENDBRANCH  21  22
ENDBRANCH  16  21
ENDBRANCH   1  15
BRANCH   2  24
ATOM     24  C   UNL     1     -20.028 -10.546   4.161  0.00  0.00    +0.000 C 
ATOM     25  N   UNL     1     -20.969 -11.119   3.776  0.00  0.00    +0.000 NA
ENDBRANCH   2  24
TORSDOF 7
ENDMDL
MODEL 4
REMARK VINA RESULT:      -5.4      9.483     11.150
REMARK  Name = 
REMARK  7 active torsions:
REMARK  status: ('A' for Active; 'I' for Inactive)
REMARK    1  A    between atoms: C_2  and  O_3
REMARK    2  A    between atoms: O_3  and  C_4
REMARK    3  A    between atoms: C_7  and  C_8
REMARK    4  A    between atoms: C_9  and  C_10
REMARK    5  A    between atoms: C_9  and  C_12
REMARK    6  A    between atoms: C_21  and  O_22
REMARK    7  A    between atoms: O_22  and  C_23
REMARK                            x       y       z     vdW  Elec       q    Type
REMARK                         _______ _______ _______ _____ _____    ______ ____
ROOT
ATOM      1  C   UNL     1     -29.254   8.282 -12.179  0.00  0.00    +0.000 C 
ATOM      2  C   UNL     1     -30.362   8.381 -11.462  0.00  0.00    +0.000 C 
ENDROOT
BRANCH   2   3
ATOM      3  C   UNL     1     -30.410   7.493 -10.292  0.00  0.00    +0.000 A 
ATOM      4  C   UNL     1     -30.574   6.120 -10.422  0.00  0.00    +0.000 A 
ATOM      5  C   UNL     1     -31.478   5.416  -9.636  0.00  0.00    +0.000 A 
ATOM      6  C   UNL     1     -32.116   6.050  -8.576  0.00  0.00    +0.000 A 
ATOM      7  C   UNL     1     -31.514   7.228  -8.148  0.00  0.00    +0.000 A 
ATOM      8  C   UNL     1     -30.849   8.015  -9.082  0.00  0.00    +0.000 A 
ATOM      9  O   UNL     1     -32.234   7.621  -7.016  0.00  0.00    +0.000 OA
ATOM     10  C   UNL     1     -33.207   6.665  -6.690  0.00  0.00    +0.000 C 
ATOM     11  O   UNL     1     -33.261   5.838  -7.843  0.00  0.00    +0.000 OA
ENDBRANCH   2   3
BRANCH   1  15
ATOM     12  C   UNL     1     -26.761   8.095  -8.943  0.00  0.00    +0.000 A 
ATOM     13  C   UNL     1     -26.719   7.048  -9.846  0.00  0.00    +0.000 A 
ATOM     14  C   UNL     1     -27.277   7.179 -11.112  0.00  0.00    +0.000 A 
ATOM     15  C   UNL     1     -27.956   8.313 -11.492  0.00  0.00    +0.000 A 
ATOM     16  C   UNL     1     -27.726   9.437 -10.707  0.00  0.00    +0.000 A 
ATOM     17  C   UNL     1     -27.078   9.336  -9.479  0.00  0.00    +0.000 A 
BRANCH  12  18
ATOM     18  O   UNL     1     -26.911   7.847  -7.576  0.00  0.00    +0.000 OA
BRANCH  18  20
ATOM     19  C   UNL     1     -24.677   8.339  -6.851  0.00  0.00    +0.000 C 
ATOM     20  C   UNL     1     -26.143   8.604  -6.665  0.00  0.00    +0.000 C 
ENDBRANCH  18  20
ENDBRANCH  12  18
BRANCH  16  21
ATOM     21  O   UNL     1     -28.118  10.685 -11.179  0.00  0.00    +0.000 OA
BRANCH  21  22
ATOM     22  C   UNL     1     -28.417  11.696 -10.244  0.00  0.00    +0.000 C 
ATOM     23  C   UNL     1     -29.900  11.747  -9.944  0.00  0.00    +0.000 C 
ENDBRANCH  21  22
ENDBRANCH  16  21
ENDBRANCH   1  15
BRANCH   2  24
ATOM     24  C   UNL     1     -31.536   9.071 -11.947  0.00  0.00    +0.000 C 
ATOM     25  N   UNL     1     -32.593   9.538 -12.114  0.00  0.00    +0.000 NA
ENDBRANCH   2  24
TORSDOF 7
ENDMDL
MODEL 5
REMARK VINA RESULT:      -5.4     14.439     17.662
REMARK  Name = 
REMARK  7 active torsions:
REMARK  status: ('A' for Active; 'I' for Inactive)
REMARK    1  A    between atoms: C_2  and  O_3
REMARK    2  A    between atoms: O_3  and  C_4
REMARK    3  A    between atoms: C_7  and  C_8
REMARK    4  A    between atoms: C_9  and  C_10
REMARK    5  A    between atoms: C_9  and  C_12
REMARK    6  A    between atoms: C_21  and  O_22
REMARK    7  A    between atoms: O_22  and  C_23
REMARK                            x       y       z     vdW  Elec       q    Type
REMARK                         _______ _______ _______ _____ _____    ______ ____
ROOT
ATOM      1  C   UNL     1     -35.728  -3.937  -5.350  0.00  0.00    +0.000 C 
ATOM      2  C   UNL     1     -34.511  -4.085  -4.849  0.00  0.00    +0.000 C 
ENDROOT
BRANCH   2   3
ATOM      3  C   UNL     1     -33.437  -3.561  -5.702  0.00  0.00    +0.000 A 
ATOM      4  C   UNL     1     -33.293  -3.958  -7.026  0.00  0.00    +0.000 A 
ATOM      5  C   UNL     1     -32.058  -4.318  -7.550  0.00  0.00    +0.000 A 
ATOM      6  C   UNL     1     -30.903  -4.120  -6.802  0.00  0.00    +0.000 A 
ATOM      7  C   UNL     1     -31.034  -3.226  -5.746  0.00  0.00    +0.000 A 
ATOM      8  C   UNL     1     -32.261  -3.132  -5.099  0.00  0.00    +0.000 A 
ATOM      9  O   UNL     1     -29.746  -3.085  -5.219  0.00  0.00    +0.000 OA
ATOM     10  C   UNL     1     -28.816  -3.804  -5.985  0.00  0.00    +0.000 C 
ATOM     11  O   UNL     1     -29.627  -4.636  -6.800  0.00  0.00    +0.000 OA
ENDBRANCH   2   3
BRANCH   1  15
ATOM     12  C   UNL     1     -38.336  -0.895  -6.164  0.00  0.00    +0.000 A 
ATOM     13  C   UNL     1     -37.363  -0.667  -5.207  0.00  0.00    +0.000 A 
ATOM     14  C   UNL     1     -36.259  -1.504  -5.102  0.00  0.00    +0.000 A 
ATOM     15  C   UNL     1     -36.124  -2.628  -5.883  0.00  0.00    +0.000 A 
ATOM     16  C   UNL     1     -36.930  -2.667  -7.015  0.00  0.00    +0.000 A 
ATOM     17  C   UNL     1     -37.980  -1.769  -7.182  0.00  0.00    +0.000 A 
BRANCH  12  18
ATOM     18  O   UNL     1     -39.679  -0.627  -5.887  0.00  0.00    +0.000 OA
BRANCH  18  20
ATOM     19  C   UNL     1     -41.258  -2.332  -5.288  0.00  0.00    +0.000 C 
ATOM     20  C   UNL     1     -40.659  -1.509  -6.391  0.00  0.00    +0.000 C 
ENDBRANCH  18  20
ENDBRANCH  12  18
BRANCH  16  21
ATOM     21  O   UNL     1     -36.653  -3.596  -8.012  0.00  0.00    +0.000 OA
BRANCH  21  22
ATOM     22  C   UNL     1     -37.672  -4.487  -8.406  0.00  0.00    +0.000 C 
ATOM     23  C   UNL     1     -37.183  -5.921  -8.396  0.00  0.00    +0.000 C 
ENDBRANCH  21  22
ENDBRANCH  16  21
ENDBRANCH   1  15
BRANCH   2  24
ATOM     24  C   UNL     1     -34.241  -4.944  -3.718  0.00  0.00    +0.000 C 
ATOM     25  N   UNL     1     -33.834  -5.737  -2.964  0.00  0.00    +0.000 NA
ENDBRANCH   2  24
TORSDOF 7
ENDMDL
MODEL 6
REMARK VINA RESULT:      -5.4     15.329     18.858
REMARK  Name = 
REMARK  7 active torsions:
REMARK  status: ('A' for Active; 'I' for Inactive)
REMARK    1  A    between atoms: C_2  and  O_3
REMARK    2  A    between atoms: O_3  and  C_4
REMARK    3  A    between atoms: C_7  and  C_8
REMARK    4  A    between atoms: C_9  and  C_10
REMARK    5  A    between atoms: C_9  and  C_12
REMARK    6  A    between atoms: C_21  and  O_22
REMARK    7  A    between atoms: O_22  and  C_23
REMARK                            x       y       z     vdW  Elec       q    Type
REMARK                         _______ _______ _______ _____ _____    ______ ____
ROOT
ATOM      1  C   UNL     1     -18.528  -7.822   7.683  0.00  0.00    +0.000 C 
ATOM      2  C   UNL     1     -19.009  -6.899   8.503  0.00  0.00    +0.000 C 
ENDROOT
BRANCH   2   3
ATOM      3  C   UNL     1     -19.136  -5.564   7.904  0.00  0.00    +0.000 A 
ATOM      4  C   UNL     1     -18.054  -4.918   7.318  0.00  0.00    +0.000 A 
ATOM      5  C   UNL     1     -17.769  -3.585   7.583  0.00  0.00    +0.000 A 
ATOM      6  C   UNL     1     -18.669  -2.815   8.311  0.00  0.00    +0.000 A 
ATOM      7  C   UNL     1     -19.957  -3.333   8.388  0.00  0.00    +0.000 A 
ATOM      8  C   UNL     1     -20.123  -4.713   8.387  0.00  0.00    +0.000 A 
ATOM      9  O   UNL     1     -20.710  -2.355   9.045  0.00  0.00    +0.000 OA
ATOM     10  C   UNL     1     -19.933  -1.214   9.294  0.00  0.00    +0.000 C 
ATOM     11  O   UNL     1     -18.606  -1.655   9.050  0.00  0.00    +0.000 OA
ENDBRANCH   2   3
BRANCH   1  15
ATOM     12  C   UNL     1     -19.574  -9.799   4.261  0.00  0.00    +0.000 A 
ATOM     13  C   UNL     1     -20.594  -9.382   5.098  0.00  0.00    +0.000 A 
ATOM     14  C   UNL     1     -20.358  -8.440   6.091  0.00  0.00    +0.000 A 
ATOM     15  C   UNL     1     -19.098  -7.944   6.336  0.00  0.00    +0.000 A 
ATOM     16  C   UNL     1     -18.174  -8.135   5.315  0.00  0.00    +0.000 A 
ATOM     17  C   UNL     1     -18.438  -9.001   4.258  0.00  0.00    +0.000 A 
BRANCH  12  18
ATOM     18  O   UNL     1     -19.521 -11.121   3.812  0.00  0.00    +0.000 OA
BRANCH  18  20
ATOM     19  C   UNL     1     -18.363 -12.538   5.365  0.00  0.00    +0.000 C 
ATOM     20  C   UNL     1     -19.681 -12.159   4.755  0.00  0.00    +0.000 C 
ENDBRANCH  18  20
ENDBRANCH  12  18
BRANCH  16  21
ATOM     21  O   UNL     1     -16.984  -7.416   5.336  0.00  0.00    +0.000 OA
BRANCH  21  22
ATOM     22  C   UNL     1     -16.764  -6.446   4.336  0.00  0.00    +0.000 C 
ATOM     23  C   UNL     1     -15.566  -6.799   3.481  0.00  0.00    +0.000 C 
ENDBRANCH  21  22
ENDBRANCH  16  21
ENDBRANCH   1  15
BRANCH   2  24
ATOM     24  C   UNL     1     -19.113  -7.113   9.929  0.00  0.00    +0.000 C 
ATOM     25  N   UNL     1     -19.229  -7.539  11.009  0.00  0.00    +0.000 NA
ENDBRANCH   2  24
TORSDOF 7
ENDMDL
MODEL 7
REMARK VINA RESULT:      -5.3     22.087     23.660
REMARK  Name = 
REMARK  7 active torsions:
REMARK  status: ('A' for Active; 'I' for Inactive)
REMARK    1  A    between atoms: C_2  and  O_3
REMARK    2  A    between atoms: O_3  and  C_4
REMARK    3  A    between atoms: C_7  and  C_8
REMARK    4  A    between atoms: C_9  and  C_10
REMARK    5  A    between atoms: C_9  and  C_12
REMARK    6  A    between atoms: C_21  and  O_22
REMARK    7  A    between atoms: O_22  and  C_23
REMARK                            x       y       z     vdW  Elec       q    Type
REMARK                         _______ _______ _______ _____ _____    ______ ____
ROOT
ATOM      1  C   UNL     1      -3.492  12.335   5.540  0.00  0.00    +0.000 C 
ATOM      2  C   UNL     1      -2.431  11.728   5.032  0.00  0.00    +0.000 C 
ENDROOT
BRANCH   2   3
ATOM      3  C   UNL     1      -2.028  12.219   3.708  0.00  0.00    +0.000 A 
ATOM      4  C   UNL     1      -2.665  11.800   2.546  0.00  0.00    +0.000 A 
ATOM      5  C   UNL     1      -1.949  11.410   1.422  0.00  0.00    +0.000 A 
ATOM      6  C   UNL     1      -0.572  11.598   1.377  0.00  0.00    +0.000 A 
ATOM      7  C   UNL     1      -0.073  12.509   2.300  0.00  0.00    +0.000 A 
ATOM      8  C   UNL     1      -0.714  12.635   3.527  0.00  0.00    +0.000 A 
ATOM      9  O   UNL     1       1.287  12.634   1.999  0.00  0.00    +0.000 OA
ATOM     10  C   UNL     1       1.613  11.887   0.857  0.00  0.00    +0.000 C 
ATOM     11  O   UNL     1       0.476  11.058   0.665  0.00  0.00    +0.000 OA
ENDBRANCH   2   3
BRANCH   1  15
ATOM     12  C   UNL     1      -2.275  16.087   4.462  0.00  0.00    +0.000 A 
ATOM     13  C   UNL     1      -3.475  15.629   3.949  0.00  0.00    +0.000 A 
ATOM     14  C   UNL     1      -4.113  14.527   4.505  0.00  0.00    +0.000 A 
ATOM     15  C   UNL     1      -3.547  13.802   5.528  0.00  0.00    +0.000 A 
ATOM     16  C   UNL     1      -2.522  14.441   6.215  0.00  0.00    +0.000 A 
ATOM     17  C   UNL     1      -1.940  15.604   5.721  0.00  0.00    +0.000 A 
BRANCH  12  18
ATOM     18  O   UNL     1      -1.298  16.618   3.616  0.00  0.00    +0.000 OA
BRANCH  18  20
ATOM     19  C   UNL     1       0.168  16.415   1.726  0.00  0.00    +0.000 C 
ATOM     20  C   UNL     1      -1.174  16.087   2.314  0.00  0.00    +0.000 C 
ENDBRANCH  18  20
ENDBRANCH  12  18
BRANCH  16  21
ATOM     21  O   UNL     1      -2.102  13.926   7.437  0.00  0.00    +0.000 OA
BRANCH  21  22
ATOM     22  C   UNL     1      -0.779  14.177   7.856  0.00  0.00    +0.000 C 
ATOM     23  C   UNL     1       0.178  13.139   7.308  0.00  0.00    +0.000 C 
ENDBRANCH  21  22
ENDBRANCH  16  21
ENDBRANCH   1  15
BRANCH   2  24
ATOM     24  C   UNL     1      -1.904  10.501   5.587  0.00  0.00    +0.000 C 
ATOM     25  N   UNL     1      -1.459   9.440   5.780  0.00  0.00    +0.000 NA
ENDBRANCH   2  24
TORSDOF 7
ENDMDL
MODEL 8
REMARK VINA RESULT:      -5.3      3.055      4.229
REMARK  Name = 
REMARK  7 active torsions:
REMARK  status: ('A' for Active; 'I' for Inactive)
REMARK    1  A    between atoms: C_2  and  O_3
REMARK    2  A    between atoms: O_3  and  C_4
REMARK    3  A    between atoms: C_7  and  C_8
REMARK    4  A    between atoms: C_9  and  C_10
REMARK    5  A    between atoms: C_9  and  C_12
REMARK    6  A    between atoms: C_21  and  O_22
REMARK    7  A    between atoms: O_22  and  C_23
REMARK                            x       y       z     vdW  Elec       q    Type
REMARK                         _______ _______ _______ _____ _____    ______ ____
ROOT
ATOM      1  C   UNL     1     -24.300   5.938  -2.249  0.00  0.00    +0.000 C 
ATOM      2  C   UNL     1     -25.073   5.221  -1.447  0.00  0.00    +0.000 C 
ENDROOT
BRANCH   2   3
ATOM      3  C   UNL     1     -25.542   5.941  -0.256  0.00  0.00    +0.000 A 
ATOM      4  C   UNL     1     -24.690   6.241   0.800  0.00  0.00    +0.000 A 
ATOM      5  C   UNL     1     -25.059   6.017   2.121  0.00  0.00    +0.000 A 
ATOM      6  C   UNL     1     -26.365   5.648   2.423  0.00  0.00    +0.000 A 
ATOM      7  C   UNL     1     -27.294   5.904   1.422  0.00  0.00    +0.000 A 
ATOM      8  C   UNL     1     -26.882   5.838   0.095  0.00  0.00    +0.000 A 
ATOM      9  O   UNL     1     -28.536   5.577   1.977  0.00  0.00    +0.000 OA
ATOM     10  C   UNL     1     -28.396   5.211   3.324  0.00  0.00    +0.000 C 
ATOM     11  O   UNL     1     -26.997   5.023   3.475  0.00  0.00    +0.000 OA
ENDBRANCH   2   3
BRANCH   1  15
ATOM     12  C   UNL     1     -24.720   9.121  -4.782  0.00  0.00    +0.000 A 
ATOM     13  C   UNL     1     -25.859   8.408  -4.453  0.00  0.00    +0.000 A 
ATOM     14  C   UNL     1     -25.866   7.537  -3.370  0.00  0.00    +0.000 A 
ATOM     15  C   UNL     1     -24.731   7.288  -2.634  0.00  0.00    +0.000 A 
ATOM     16  C   UNL     1     -23.708   8.218  -2.781  0.00  0.00    +0.000 A 
ATOM     17  C   UNL     1     -23.737   9.163  -3.802  0.00  0.00    +0.000 A 
BRANCH  12  18
ATOM     18  O   UNL     1     -24.410   9.384  -6.119  0.00  0.00    +0.000 OA
BRANCH  18  20
ATOM     19  C   UNL     1     -25.212   8.366  -8.139  0.00  0.00    +0.000 C 
ATOM     20  C   UNL     1     -24.239   8.293  -6.998  0.00  0.00    +0.000 C 
ENDBRANCH  18  20
ENDBRANCH  12  18
BRANCH  16  21
ATOM     21  O   UNL     1     -22.661   8.224  -1.866  0.00  0.00    +0.000 OA
BRANCH  21  22
ATOM     22  C   UNL     1     -22.671   9.185  -0.835  0.00  0.00    +0.000 C 
ATOM     23  C   UNL     1     -22.009   8.653   0.419  0.00  0.00    +0.000 C 
ENDBRANCH  21  22
ENDBRANCH  16  21
ENDBRANCH   1  15
BRANCH   2  24
ATOM     24  C   UNL     1     -25.196   3.787  -1.574  0.00  0.00    +0.000 C 
ATOM     25  N   UNL     1     -25.279   2.680  -1.936  0.00  0.00    +0.000 NA
ENDBRANCH   2  24
TORSDOF 7
ENDMDL
MODEL 9
REMARK VINA RESULT:      -5.3     21.534     23.677
REMARK  Name = 
REMARK  7 active torsions:
REMARK  status: ('A' for Active; 'I' for Inactive)
REMARK    1  A    between atoms: C_2  and  O_3
REMARK    2  A    between atoms: O_3  and  C_4
REMARK    3  A    between atoms: C_7  and  C_8
REMARK    4  A    between atoms: C_9  and  C_10
REMARK    5  A    between atoms: C_9  and  C_12
REMARK    6  A    between atoms: C_21  and  O_22
REMARK    7  A    between atoms: O_22  and  C_23
REMARK                            x       y       z     vdW  Elec       q    Type
REMARK                         _______ _______ _______ _____ _____    ______ ____
ROOT
ATOM      1  C   UNL     1      -2.016  10.902   6.252  0.00  0.00    +0.000 C 
ATOM      2  C   UNL     1      -1.604   9.978   5.397  0.00  0.00    +0.000 C 
ENDROOT
BRANCH   2   3
ATOM      3  C   UNL     1      -1.538  10.430   4.001  0.00  0.00    +0.000 A 
ATOM      4  C   UNL     1      -2.685  10.682   3.259  0.00  0.00    +0.000 A 
ATOM      5  C   UNL     1      -2.834  10.206   1.962  0.00  0.00    +0.000 A 
ATOM      6  C   UNL     1      -1.757   9.612   1.314  0.00  0.00    +0.000 A 
ATOM      7  C   UNL     1      -0.514   9.884   1.871  0.00  0.00    +0.000 A 
ATOM      8  C   UNL     1      -0.426  10.083   3.244  0.00  0.00    +0.000 A 
ATOM      9  O   UNL     1       0.416   9.301   1.003  0.00  0.00    +0.000 OA
ATOM     10  C   UNL     1      -0.227   8.754  -0.118  0.00  0.00    +0.000 C 
ATOM     11  O   UNL     1      -1.597   8.747   0.254  0.00  0.00    +0.000 OA
ENDBRANCH   2   3
BRANCH   1  15
ATOM     12  C   UNL     1      -0.876  14.521   7.775  0.00  0.00    +0.000 A 
ATOM     13  C   UNL     1       0.121  13.613   7.464  0.00  0.00    +0.000 A 
ATOM     14  C   UNL     1      -0.145  12.514   6.656  0.00  0.00    +0.000 A 
ATOM     15  C   UNL     1      -1.414  12.239   6.200  0.00  0.00    +0.000 A 
ATOM     16  C   UNL     1      -2.312  13.299   6.263  0.00  0.00    +0.000 A 
ATOM     17  C   UNL     1      -2.017  14.450   6.987  0.00  0.00    +0.000 A 
BRANCH  12  18
ATOM     18  O   UNL     1      -0.910  15.134   9.030  0.00  0.00    +0.000 OA
BRANCH  18  20
ATOM     19  C   UNL     1       0.325  17.166   9.362  0.00  0.00    +0.000 C 
ATOM     20  C   UNL     1      -1.013  16.540   9.090  0.00  0.00    +0.000 C 
ENDBRANCH  18  20
ENDBRANCH  12  18
BRANCH  16  21
ATOM     21  O   UNL     1      -3.507  13.216   5.557  0.00  0.00    +0.000 OA
BRANCH  21  22
ATOM     22  C   UNL     1      -3.943  14.345   4.834  0.00  0.00    +0.000 C 
ATOM     23  C   UNL     1      -3.471  14.293   3.396  0.00  0.00    +0.000 C 
ENDBRANCH  21  22
ENDBRANCH  16  21
ENDBRANCH   1  15
BRANCH   2  24
ATOM     24  C   UNL     1      -1.516   8.580   5.755  0.00  0.00    +0.000 C 
ATOM     25  N   UNL     1      -1.615   7.521   6.235  0.00  0.00    +0.000 NA
ENDBRANCH   2  24
TORSDOF 7
ENDMDL
MODEL 10
REMARK VINA RESULT:      -5.2      4.683      5.921
REMARK  Name = 
REMARK  7 active torsions:
REMARK  status: ('A' for Active; 'I' for Inactive)
REMARK    1  A    between atoms: C_2  and  O_3
REMARK    2  A    between atoms: O_3  and  C_4
REMARK    3  A    between atoms: C_7  and  C_8
REMARK    4  A    between atoms: C_9  and  C_10
REMARK    5  A    between atoms: C_9  and  C_12
REMARK    6  A    between atoms: C_21  and  O_22
REMARK    7  A    between atoms: O_22  and  C_23
REMARK                            x       y       z     vdW  Elec       q    Type
REMARK                         _______ _______ _______ _____ _____    ______ ____
ROOT
ATOM      1  C   UNL     1     -24.846   9.937  -5.368  0.00  0.00    +0.000 C 
ATOM      2  C   UNL     1     -24.040   9.649  -4.357  0.00  0.00    +0.000 C 
ENDROOT
BRANCH   2   3
ATOM      3  C   UNL     1     -24.475   8.508  -3.541  0.00  0.00    +0.000 A 
ATOM      4  C   UNL     1     -25.409   8.651  -2.522  0.00  0.00    +0.000 A 
ATOM      5  C   UNL     1     -25.214   8.082  -1.269  0.00  0.00    +0.000 A 
ATOM      6  C   UNL     1     -24.154   7.206  -1.063  0.00  0.00    +0.000 A 
ATOM      7  C   UNL     1     -23.601   6.670  -2.220  0.00  0.00    +0.000 A 
ATOM      8  C   UNL     1     -23.603   7.439  -3.379  0.00  0.00    +0.000 A 
ATOM      9  O   UNL     1     -22.654   5.739  -1.781  0.00  0.00    +0.000 OA
ATOM     10  C   UNL     1     -22.678   5.630  -0.383  0.00  0.00    +0.000 C 
ATOM     11  O   UNL     1     -23.445   6.751   0.026  0.00  0.00    +0.000 OA
ENDBRANCH   2   3
BRANCH   1  15
ATOM     12  C   UNL     1     -26.445   8.347  -8.779  0.00  0.00    +0.000 A 
ATOM     13  C   UNL     1     -25.094   8.151  -8.552  0.00  0.00    +0.000 A 
ATOM     14  C   UNL     1     -24.547   8.365  -7.293  0.00  0.00    +0.000 A 
ATOM     15  C   UNL     1     -25.298   8.853  -6.249  0.00  0.00    +0.000 A 
ATOM     16  C   UNL     1     -26.675   8.752  -6.407  0.00  0.00    +0.000 A 
ATOM     17  C   UNL     1     -27.236   8.438  -7.642  0.00  0.00    +0.000 A 
BRANCH  12  18
ATOM     18  O   UNL     1     -26.892   8.850 -10.004  0.00  0.00    +0.000 OA
BRANCH  18  20
ATOM     19  C   UNL     1     -27.299   6.674 -10.932  0.00  0.00    +0.000 C 
ATOM     20  C   UNL     1     -27.802   8.078 -10.757  0.00  0.00    +0.000 C 
ENDBRANCH  18  20
ENDBRANCH  12  18
BRANCH  16  21
ATOM     21  O   UNL     1     -27.499   8.930  -5.302  0.00  0.00    +0.000 OA
BRANCH  21  22
ATOM     22  C   UNL     1     -28.591   8.055  -5.126  0.00  0.00    +0.000 C 
ATOM     23  C   UNL     1     -28.765   7.679  -3.669  0.00  0.00    +0.000 C 
ENDBRANCH  21  22
ENDBRANCH  16  21
ENDBRANCH   1  15
BRANCH   2  24
ATOM     24  C   UNL     1     -23.000  10.552  -3.919  0.00  0.00    +0.000 C 
ATOM     25  N   UNL     1     -22.333  11.339  -3.371  0.00  0.00    +0.000 NA
ENDBRANCH   2  24
TORSDOF 7
ENDMDL
