MODEL 1
REMARK VINA RESULT:      -6.8      0.000      0.000
REMARK  Name = 
REMARK  12 active torsions:
REMARK  status: ('A' for Active; 'I' for Inactive)
REMARK    1  A    between atoms: O_2  and  C_3
REMARK    2  A    between atoms: C_3  and  C_4
REMARK    3  A    between atoms: C_4  and  O_6
REMARK    4  A    between atoms: O_6  and  C_7
REMARK    5  A    between atoms: C_7  and  C_8
REMARK    6  A    between atoms: C_8  and  O_10
REMARK    7  A    between atoms: O_10  and  C_11
REMARK    8  A    between atoms: C_11  and  C_12
REMARK    9  A    between atoms: C_12  and  O_14
REMARK   10  A    between atoms: O_14  and  C_15
REMARK   11  A    between atoms: C_21  and  C_22
REMARK   12  A    between atoms: C_23  and  C_24
REMARK                            x       y       z     vdW  Elec       q    Type
REMARK                         _______ _______ _______ _____ _____    ______ ____
ROOT
ATOM      1  C   UNL     1     -17.275   0.007   6.962  0.00  0.00    +0.000 A 
ATOM      2  C   UNL     1     -16.610   1.213   7.147  0.00  0.00    +0.000 A 
ATOM      3  C   UNL     1     -15.348   1.454   6.663  0.00  0.00    +0.000 A 
ATOM      4  O   UNL     1     -14.630   2.520   7.206  0.00  0.00    +0.000 OA
ATOM      5  C   UNL     1     -14.663   0.408   6.059  0.00  0.00    +0.000 A 
ATOM      6  C   UNL     1     -15.278  -0.812   5.989  0.00  0.00    +0.000 A 
ATOM      7  C   UNL     1     -16.632  -0.985   6.251  0.00  0.00    +0.000 A 
ENDROOT
BRANCH   7   8
ATOM      8  C   UNL     1     -17.151  -2.326   6.074  0.00  0.00    +0.000 C 
ATOM      9  C   UNL     1     -16.905  -3.361   6.833  0.00  0.00    +0.000 C 
BRANCH   9  10
ATOM     10  C   UNL     1     -17.926  -4.105   7.582  0.00  0.00    +0.000 A 
ATOM     11  C   UNL     1     -18.421  -3.702   8.798  0.00  0.00    +0.000 A 
ATOM     12  C   UNL     1     -19.238  -4.580   9.487  0.00  0.00    +0.000 A 
ATOM     13  O   UNL     1     -19.792  -4.256  10.730  0.00  0.00    +0.000 OA
ATOM     14  C   UNL     1     -19.396  -5.888   9.053  0.00  0.00    +0.000 A 
ATOM     15  C   UNL     1     -18.869  -6.289   7.843  0.00  0.00    +0.000 A 
ATOM     16  O   UNL     1     -18.814  -7.634   7.461  0.00  0.00    +0.000 OA
ATOM     17  C   UNL     1     -18.402  -5.279   7.010  0.00  0.00    +0.000 A 
ENDBRANCH   9  10
ENDBRANCH   7   8
BRANCH   1  18
ATOM     18  O   UNL     1     -18.412  -0.340   7.703  0.00  0.00    +0.000 OA
BRANCH  18  19
ATOM     19  C   UNL     1     -19.615   0.536   7.210  0.00  0.00    +0.000 C 
ATOM     20  C   UNL     1     -19.790   1.237   8.723  0.00  0.00    +0.000 C 
BRANCH  19  21
ATOM     21  C   UNL     1     -20.717  -0.665   7.606  0.00  0.00    +0.000 C 
BRANCH  21  22
ATOM     22  O   UNL     1     -21.616  -0.451   6.582  0.00  0.00    +0.000 OA
BRANCH  22  23
ATOM     23  C   UNL     1     -22.149  -1.855   6.205  0.00  0.00    +0.000 C 
ATOM     24  C   UNL     1     -21.821  -2.448   7.746  0.00  0.00    +0.000 C 
BRANCH  23  25
ATOM     25  C   UNL     1     -23.733  -1.496   6.647  0.00  0.00    +0.000 C 
BRANCH  25  26
ATOM     26  O   UNL     1     -24.533  -2.198   5.815  0.00  0.00    +0.000 OA
BRANCH  26  27
ATOM     27  C   UNL     1     -25.809  -1.357   5.597  0.00  0.00    +0.000 C 
ATOM     28  C   UNL     1     -25.595  -1.404   3.928  0.00  0.00    +0.000 C 
BRANCH  27  29
ATOM     29  C   UNL     1     -26.751  -2.751   5.549  0.00  0.00    +0.000 C 
BRANCH  29  31
ATOM     30  C   UNL     1     -28.319  -2.340   6.444  0.00  0.00    +0.000 C 
ATOM     31  O   UNL     1     -27.652  -2.367   6.555  0.00  0.00    +0.000 OA
ENDBRANCH  29  31
ENDBRANCH  27  29
ENDBRANCH  26  27
ENDBRANCH  25  26
ENDBRANCH  23  25
ENDBRANCH  22  23
ENDBRANCH  21  22
ENDBRANCH  19  21
ENDBRANCH  18  19
ENDBRANCH   1  18
TORSDOF 12
ENDMDL
MODEL 2
REMARK VINA RESULT:      -6.7      2.787      7.089
REMARK  Name = 
REMARK  12 active torsions:
REMARK  status: ('A' for Active; 'I' for Inactive)
REMARK    1  A    between atoms: O_2  and  C_3
REMARK    2  A    between atoms: C_3  and  C_4
REMARK    3  A    between atoms: C_4  and  O_6
REMARK    4  A    between atoms: O_6  and  C_7
REMARK    5  A    between atoms: C_7  and  C_8
REMARK    6  A    between atoms: C_8  and  O_10
REMARK    7  A    between atoms: O_10  and  C_11
REMARK    8  A    between atoms: C_11  and  C_12
REMARK    9  A    between atoms: C_12  and  O_14
REMARK   10  A    between atoms: O_14  and  C_15
REMARK   11  A    between atoms: C_21  and  C_22
REMARK   12  A    between atoms: C_23  and  C_24
REMARK                            x       y       z     vdW  Elec       q    Type
REMARK                         _______ _______ _______ _____ _____    ______ ____
ROOT
ATOM      1  C   UNL     1     -17.747  -6.986   5.698  0.00  0.00    +0.000 A 
ATOM      2  C   UNL     1     -17.210  -7.973   4.881  0.00  0.00    +0.000 A 
ATOM      3  C   UNL     1     -16.207  -7.732   3.975  0.00  0.00    +0.000 A 
ATOM      4  O   UNL     1     -16.000  -8.668   2.962  0.00  0.00    +0.000 OA
ATOM      5  C   UNL     1     -15.789  -6.422   3.789  0.00  0.00    +0.000 A 
ATOM      6  C   UNL     1     -16.407  -5.437   4.509  0.00  0.00    +0.000 A 
ATOM      7  C   UNL     1     -17.236  -5.709   5.592  0.00  0.00    +0.000 A 
ENDROOT
BRANCH   7   8
ATOM      8  C   UNL     1     -17.769  -4.558   6.294  0.00  0.00    +0.000 C 
ATOM      9  C   UNL     1     -17.078  -3.623   6.889  0.00  0.00    +0.000 C 
BRANCH   9  10
ATOM     10  C   UNL     1     -17.112  -2.201   6.521  0.00  0.00    +0.000 A 
ATOM     11  C   UNL     1     -16.101  -1.567   5.842  0.00  0.00    +0.000 A 
ATOM     12  C   UNL     1     -16.168  -0.190   5.719  0.00  0.00    +0.000 A 
ATOM     13  O   UNL     1     -15.188   0.542   5.041  0.00  0.00    +0.000 OA
ATOM     14  C   UNL     1     -17.122   0.536   6.418  0.00  0.00    +0.000 A 
ATOM     15  C   UNL     1     -18.115  -0.113   7.120  0.00  0.00    +0.000 A 
ATOM     16  O   UNL     1     -18.964   0.559   8.008  0.00  0.00    +0.000 OA
ATOM     17  C   UNL     1     -18.240  -1.479   6.891  0.00  0.00    +0.000 A 
ENDBRANCH   9  10
ENDBRANCH   7   8
BRANCH   1  18
ATOM     18  O   UNL     1     -18.953  -7.161   6.387  0.00  0.00    +0.000 OA
BRANCH  18  19
ATOM     19  C   UNL     1     -18.956  -8.591   7.031  0.00  0.00    +0.000 C 
ATOM     20  C   UNL     1     -20.625  -8.698   6.906  0.00  0.00    +0.000 C 
BRANCH  19  21
ATOM     21  C   UNL     1     -19.084  -7.949   8.577  0.00  0.00    +0.000 C 
BRANCH  21  22
ATOM     22  O   UNL     1     -20.393  -7.526   8.506  0.00  0.00    +0.000 OA
BRANCH  22  23
ATOM     23  C   UNL     1     -20.726  -6.985   9.919  0.00  0.00    +0.000 C 
ATOM     24  C   UNL     1     -19.094  -6.869  10.313  0.00  0.00    +0.000 C 
BRANCH  23  25
ATOM     25  C   UNL     1     -20.752  -5.378   9.420  0.00  0.00    +0.000 C 
BRANCH  25  26
ATOM     26  O   UNL     1     -20.677  -4.627  10.540  0.00  0.00    +0.000 OA
BRANCH  26  27
ATOM     27  C   UNL     1     -20.852  -3.154  10.111  0.00  0.00    +0.000 C 
ATOM     28  C   UNL     1     -19.188  -2.908  10.158  0.00  0.00    +0.000 C 
BRANCH  27  29
ATOM     29  C   UNL     1     -20.775  -3.591   8.488  0.00  0.00    +0.000 C 
BRANCH  29  31
ATOM     30  C   UNL     1     -22.060  -2.411   7.863  0.00  0.00    +0.000 C 
ATOM     31  O   UNL     1     -21.394  -2.435   7.984  0.00  0.00    +0.000 OA
ENDBRANCH  29  31
ENDBRANCH  27  29
ENDBRANCH  26  27
ENDBRANCH  25  26
ENDBRANCH  23  25
ENDBRANCH  22  23
ENDBRANCH  21  22
ENDBRANCH  19  21
ENDBRANCH  18  19
ENDBRANCH   1  18
TORSDOF 12
ENDMDL
MODEL 3
REMARK VINA RESULT:      -6.7      1.732      2.536
REMARK  Name = 
REMARK  12 active torsions:
REMARK  status: ('A' for Active; 'I' for Inactive)
REMARK    1  A    between atoms: O_2  and  C_3
REMARK    2  A    between atoms: C_3  and  C_4
REMARK    3  A    between atoms: C_4  and  O_6
REMARK    4  A    between atoms: O_6  and  C_7
REMARK    5  A    between atoms: C_7  and  C_8
REMARK    6  A    between atoms: C_8  and  O_10
REMARK    7  A    between atoms: O_10  and  C_11
REMARK    8  A    between atoms: C_11  and  C_12
REMARK    9  A    between atoms: C_12  and  O_14
REMARK   10  A    between atoms: O_14  and  C_15
REMARK   11  A    between atoms: C_21  and  C_22
REMARK   12  A    between atoms: C_23  and  C_24
REMARK                            x       y       z     vdW  Elec       q    Type
REMARK                         _______ _______ _______ _____ _____    ______ ____
ROOT
ATOM      1  C   UNL     1     -17.649  -0.305   6.563  0.00  0.00    +0.000 A 
ATOM      2  C   UNL     1     -16.998   0.880   6.236  0.00  0.00    +0.000 A 
ATOM      3  C   UNL     1     -15.694   0.925   5.812  0.00  0.00    +0.000 A 
ATOM      4  O   UNL     1     -15.028   2.150   5.870  0.00  0.00    +0.000 OA
ATOM      5  C   UNL     1     -14.958  -0.252   5.816  0.00  0.00    +0.000 A 
ATOM      6  C   UNL     1     -15.568  -1.394   6.256  0.00  0.00    +0.000 A 
ATOM      7  C   UNL     1     -16.943  -1.484   6.444  0.00  0.00    +0.000 A 
ENDROOT
BRANCH   7   8
ATOM      8  C   UNL     1     -17.449  -2.780   6.853  0.00  0.00    +0.000 C 
ATOM      9  C   UNL     1     -18.104  -3.629   6.106  0.00  0.00    +0.000 C 
BRANCH   9  10
ATOM     10  C   UNL     1     -17.642  -4.986   5.790  0.00  0.00    +0.000 A 
ATOM     11  C   UNL     1     -16.611  -5.256   4.922  0.00  0.00    +0.000 A 
ATOM     12  C   UNL     1     -16.394  -6.575   4.565  0.00  0.00    +0.000 A 
ATOM     13  O   UNL     1     -15.366  -6.946   3.693  0.00  0.00    +0.000 OA
ATOM     14  C   UNL     1     -17.301  -7.562   4.921  0.00  0.00    +0.000 A 
ATOM     15  C   UNL     1     -18.350  -7.272   5.769  0.00  0.00    +0.000 A 
ATOM     16  O   UNL     1     -19.405  -8.166   5.986  0.00  0.00    +0.000 OA
ATOM     17  C   UNL     1     -18.299  -6.040   6.412  0.00  0.00    +0.000 A 
ENDBRANCH   9  10
ENDBRANCH   7   8
BRANCH   1  18
ATOM     18  O   UNL     1     -18.854  -0.323   7.274  0.00  0.00    +0.000 OA
BRANCH  18  19
ATOM     19  C   UNL     1     -20.028  -0.049   6.271  0.00  0.00    +0.000 C 
ATOM     20  C   UNL     1     -20.622   1.194   7.228  0.00  0.00    +0.000 C 
BRANCH  19  21
ATOM     21  C   UNL     1     -21.018  -1.159   7.048  0.00  0.00    +0.000 C 
BRANCH  21  22
ATOM     22  O   UNL     1     -22.234  -0.667   6.626  0.00  0.00    +0.000 OA
BRANCH  22  23
ATOM     23  C   UNL     1     -23.079  -1.914   6.266  0.00  0.00    +0.000 C 
ATOM     24  C   UNL     1     -22.799  -2.601   7.777  0.00  0.00    +0.000 C 
BRANCH  23  25
ATOM     25  C   UNL     1     -24.520  -1.234   6.808  0.00  0.00    +0.000 C 
BRANCH  25  26
ATOM     26  O   UNL     1     -25.509  -1.801   6.083  0.00  0.00    +0.000 OA
BRANCH  26  27
ATOM     27  C   UNL     1     -26.557  -0.701   5.808  0.00  0.00    +0.000 C 
ATOM     28  C   UNL     1     -26.391  -0.913   4.146  0.00  0.00    +0.000 C 
BRANCH  27  29
ATOM     29  C   UNL     1     -27.799  -1.835   5.862  0.00  0.00    +0.000 C 
BRANCH  29  31
ATOM     30  C   UNL     1     -28.725  -0.905   7.169  0.00  0.00    +0.000 C 
ATOM     31  O   UNL     1     -28.739  -1.010   6.501  0.00  0.00    +0.000 OA
ENDBRANCH  29  31
ENDBRANCH  27  29
ENDBRANCH  26  27
ENDBRANCH  25  26
ENDBRANCH  23  25
ENDBRANCH  22  23
ENDBRANCH  21  22
ENDBRANCH  19  21
ENDBRANCH  18  19
ENDBRANCH   1  18
TORSDOF 12
ENDMDL
MODEL 4
REMARK VINA RESULT:      -6.7      3.062      6.671
REMARK  Name = 
REMARK  12 active torsions:
REMARK  status: ('A' for Active; 'I' for Inactive)
REMARK    1  A    between atoms: O_2  and  C_3
REMARK    2  A    between atoms: C_3  and  C_4
REMARK    3  A    between atoms: C_4  and  O_6
REMARK    4  A    between atoms: O_6  and  C_7
REMARK    5  A    between atoms: C_7  and  C_8
REMARK    6  A    between atoms: C_8  and  O_10
REMARK    7  A    between atoms: O_10  and  C_11
REMARK    8  A    between atoms: C_11  and  C_12
REMARK    9  A    between atoms: C_12  and  O_14
REMARK   10  A    between atoms: O_14  and  C_15
REMARK   11  A    between atoms: C_21  and  C_22
REMARK   12  A    between atoms: C_23  and  C_24
REMARK                            x       y       z     vdW  Elec       q    Type
REMARK                         _______ _______ _______ _____ _____    ______ ____
ROOT
ATOM      1  C   UNL     1     -18.674  -4.870   8.642  0.00  0.00    +0.000 A 
ATOM      2  C   UNL     1     -19.240  -3.800   9.326  0.00  0.00    +0.000 A 
ATOM      3  C   UNL     1     -20.437  -3.887   9.993  0.00  0.00    +0.000 A 
ATOM      4  O   UNL     1     -21.093  -2.700  10.318  0.00  0.00    +0.000 OA
ATOM      5  C   UNL     1     -21.168  -5.062   9.885  0.00  0.00    +0.000 A 
ATOM      6  C   UNL     1     -20.662  -6.069   9.109  0.00  0.00    +0.000 A 
ATOM      7  C   UNL     1     -19.351  -6.072   8.646  0.00  0.00    +0.000 A 
ENDROOT
BRANCH   7   8
ATOM      8  C   UNL     1     -18.943  -7.238   7.888  0.00  0.00    +0.000 C 
ATOM      9  C   UNL     1     -19.603  -8.360   7.773  0.00  0.00    +0.000 C 
BRANCH   9  10
ATOM     10  C   UNL     1     -20.101  -8.906   6.504  0.00  0.00    +0.000 A 
ATOM     11  C   UNL     1     -20.996  -9.945   6.422  0.00  0.00    +0.000 A 
ATOM     12  C   UNL     1     -21.243 -10.488   5.175  0.00  0.00    +0.000 A 
ATOM     13  O   UNL     1     -22.142 -11.545   4.992  0.00  0.00    +0.000 OA
ATOM     14  C   UNL     1     -20.475 -10.123   4.079  0.00  0.00    +0.000 A 
ATOM     15  C   UNL     1     -19.558  -9.098   4.181  0.00  0.00    +0.000 A 
ATOM     16  O   UNL     1     -18.615  -8.835   3.180  0.00  0.00    +0.000 OA
ATOM     17  C   UNL     1     -19.625  -8.325   5.335  0.00  0.00    +0.000 A 
ENDBRANCH   9  10
ENDBRANCH   7   8
BRANCH   1  18
ATOM     18  O   UNL     1     -17.630  -4.701   7.725  0.00  0.00    +0.000 OA
BRANCH  18  19
ATOM     19  C   UNL     1     -18.140  -3.799   6.549  0.00  0.00    +0.000 C 
ATOM     20  C   UNL     1     -17.526  -4.857   5.403  0.00  0.00    +0.000 C 
BRANCH  19  21
ATOM     21  C   UNL     1     -16.714  -2.915   6.541  0.00  0.00    +0.000 C 
BRANCH  21  22
ATOM     22  O   UNL     1     -17.183  -1.791   5.898  0.00  0.00    +0.000 OA
BRANCH  22  23
ATOM     23  C   UNL     1     -17.017  -0.636   6.916  0.00  0.00    +0.000 C 
ATOM     24  C   UNL     1     -15.418  -0.390   6.453  0.00  0.00    +0.000 C 
BRANCH  23  25
ATOM     25  C   UNL     1     -17.544   0.543   5.837  0.00  0.00    +0.000 C 
BRANCH  25  26
ATOM     26  O   UNL     1     -18.508   1.243   6.472  0.00  0.00    +0.000 OA
BRANCH  26  27
ATOM     27  C   UNL     1     -19.080   0.328   7.576  0.00  0.00    +0.000 C 
ATOM     28  C   UNL     1     -19.263   1.639   8.615  0.00  0.00    +0.000 C 
BRANCH  27  29
ATOM     29  C   UNL     1     -20.640   0.539   6.980  0.00  0.00    +0.000 C 
BRANCH  29  31
ATOM     30  C   UNL     1     -20.822  -1.304   7.021  0.00  0.00    +0.000 C 
ATOM     31  O   UNL     1     -20.838  -0.792   6.578  0.00  0.00    +0.000 OA
ENDBRANCH  29  31
ENDBRANCH  27  29
ENDBRANCH  26  27
ENDBRANCH  25  26
ENDBRANCH  23  25
ENDBRANCH  22  23
ENDBRANCH  21  22
ENDBRANCH  19  21
ENDBRANCH  18  19
ENDBRANCH   1  18
TORSDOF 12
ENDMDL
MODEL 5
REMARK VINA RESULT:      -6.6     16.241     21.791
REMARK  Name = 
REMARK  12 active torsions:
REMARK  status: ('A' for Active; 'I' for Inactive)
REMARK    1  A    between atoms: O_2  and  C_3
REMARK    2  A    between atoms: C_3  and  C_4
REMARK    3  A    between atoms: C_4  and  O_6
REMARK    4  A    between atoms: O_6  and  C_7
REMARK    5  A    between atoms: C_7  and  C_8
REMARK    6  A    between atoms: C_8  and  O_10
REMARK    7  A    between atoms: O_10  and  C_11
REMARK    8  A    between atoms: C_11  and  C_12
REMARK    9  A    between atoms: C_12  and  O_14
REMARK   10  A    between atoms: O_14  and  C_15
REMARK   11  A    between atoms: C_21  and  C_22
REMARK   12  A    between atoms: C_23  and  C_24
REMARK                            x       y       z     vdW  Elec       q    Type
REMARK                         _______ _______ _______ _____ _____    ______ ____
ROOT
ATOM      1  C   UNL     1     -35.495  -4.229  -7.395  0.00  0.00    +0.000 A 
ATOM      2  C   UNL     1     -36.609  -3.475  -7.045  0.00  0.00    +0.000 A 
ATOM      3  C   UNL     1     -36.537  -2.359  -6.248  0.00  0.00    +0.000 A 
ATOM      4  O   UNL     1     -37.714  -1.901  -5.655  0.00  0.00    +0.000 OA
ATOM      5  C   UNL     1     -35.314  -2.034  -5.678  0.00  0.00    +0.000 A 
ATOM      6  C   UNL     1     -34.246  -2.851  -5.929  0.00  0.00    +0.000 A 
ATOM      7  C   UNL     1     -34.264  -3.823  -6.922  0.00  0.00    +0.000 A 
ENDROOT
BRANCH   7   8
ATOM      8  C   UNL     1     -33.035  -4.568  -7.111  0.00  0.00    +0.000 C 
ATOM      9  C   UNL     1     -31.821  -4.084  -7.081  0.00  0.00    +0.000 C 
BRANCH   9  10
ATOM     10  C   UNL     1     -30.786  -4.492  -6.123  0.00  0.00    +0.000 A 
ATOM     11  C   UNL     1     -30.986  -5.434  -5.143  0.00  0.00    +0.000 A 
ATOM     12  C   UNL     1     -29.997  -5.595  -4.189  0.00  0.00    +0.000 A 
ATOM     13  O   UNL     1     -30.110  -6.533  -3.156  0.00  0.00    +0.000 OA
ATOM     14  C   UNL     1     -28.933  -4.709  -4.117  0.00  0.00    +0.000 A 
ATOM     15  C   UNL     1     -28.759  -3.748  -5.091  0.00  0.00    +0.000 A 
ATOM     16  O   UNL     1     -27.838  -2.703  -4.955  0.00  0.00    +0.000 OA
ATOM     17  C   UNL     1     -29.545  -3.878  -6.231  0.00  0.00    +0.000 A 
ENDBRANCH   9  10
ENDBRANCH   7   8
BRANCH   1  18
ATOM     18  O   UNL     1     -35.604  -5.513  -7.941  0.00  0.00    +0.000 OA
BRANCH  18  19
ATOM     19  C   UNL     1     -36.758  -6.273  -7.200  0.00  0.00    +0.000 C 
ATOM     20  C   UNL     1     -35.687  -7.414  -6.596  0.00  0.00    +0.000 C 
BRANCH  19  21
ATOM     21  C   UNL     1     -37.062  -7.228  -8.546  0.00  0.00    +0.000 C 
BRANCH  21  22
ATOM     22  O   UNL     1     -37.799  -6.315  -9.271  0.00  0.00    +0.000 OA
BRANCH  22  23
ATOM     23  C   UNL     1     -38.188  -7.049 -10.578  0.00  0.00    +0.000 C 
ATOM     24  C   UNL     1     -38.055  -5.630 -11.472  0.00  0.00    +0.000 C 
BRANCH  23  25
ATOM     25  C   UNL     1     -36.601  -7.468 -10.948  0.00  0.00    +0.000 C 
BRANCH  25  26
ATOM     26  O   UNL     1     -36.394  -7.093 -12.229  0.00  0.00    +0.000 OA
BRANCH  26  27
ATOM     27  C   UNL     1     -35.131  -7.834 -12.719  0.00  0.00    +0.000 C 
ATOM     28  C   UNL     1     -34.657  -8.145 -11.134  0.00  0.00    +0.000 C 
BRANCH  27  29
ATOM     29  C   UNL     1     -35.978  -9.287 -12.786  0.00  0.00    +0.000 C 
BRANCH  29  31
ATOM     30  C   UNL     1     -35.420 -10.438 -14.126  0.00  0.00    +0.000 C 
ATOM     31  O   UNL     1     -35.312  -9.807 -13.908  0.00  0.00    +0.000 OA
ENDBRANCH  29  31
ENDBRANCH  27  29
ENDBRANCH  26  27
ENDBRANCH  25  26
ENDBRANCH  23  25
ENDBRANCH  22  23
ENDBRANCH  21  22
ENDBRANCH  19  21
ENDBRANCH  18  19
ENDBRANCH   1  18
TORSDOF 12
ENDMDL
MODEL 6
REMARK VINA RESULT:      -6.4     15.502     20.098
REMARK  Name = 
REMARK  12 active torsions:
REMARK  status: ('A' for Active; 'I' for Inactive)
REMARK    1  A    between atoms: O_2  and  C_3
REMARK    2  A    between atoms: C_3  and  C_4
REMARK    3  A    between atoms: C_4  and  O_6
REMARK    4  A    between atoms: O_6  and  C_7
REMARK    5  A    between atoms: C_7  and  C_8
REMARK    6  A    between atoms: C_8  and  O_10
REMARK    7  A    between atoms: O_10  and  C_11
REMARK    8  A    between atoms: C_11  and  C_12
REMARK    9  A    between atoms: C_12  and  O_14
REMARK   10  A    between atoms: O_14  and  C_15
REMARK   11  A    between atoms: C_21  and  C_22
REMARK   12  A    between atoms: C_23  and  C_24
REMARK                            x       y       z     vdW  Elec       q    Type
REMARK                         _______ _______ _______ _____ _____    ______ ____
ROOT
ATOM      1  C   UNL     1     -32.139  -5.928  -2.679  0.00  0.00    +0.000 A 
ATOM      2  C   UNL     1     -31.254  -6.982  -2.482  0.00  0.00    +0.000 A 
ATOM      3  C   UNL     1     -29.941  -6.941  -2.880  0.00  0.00    +0.000 A 
ATOM      4  O   UNL     1     -29.250  -8.148  -2.982  0.00  0.00    +0.000 OA
ATOM      5  C   UNL     1     -29.508  -5.843  -3.610  0.00  0.00    +0.000 A 
ATOM      6  C   UNL     1     -30.416  -4.864  -3.907  0.00  0.00    +0.000 A 
ATOM      7  C   UNL     1     -31.663  -4.790  -3.297  0.00  0.00    +0.000 A 
ENDROOT
BRANCH   7   8
ATOM      8  C   UNL     1     -32.491  -3.660  -3.669  0.00  0.00    +0.000 C 
ATOM      9  C   UNL     1     -32.570  -3.110  -4.852  0.00  0.00    +0.000 C 
BRANCH   9  10
ATOM     10  C   UNL     1     -33.796  -3.038  -5.656  0.00  0.00    +0.000 A 
ATOM     11  C   UNL     1     -34.838  -2.186  -5.379  0.00  0.00    +0.000 A 
ATOM     12  C   UNL     1     -36.010  -2.343  -6.096  0.00  0.00    +0.000 A 
ATOM     13  O   UNL     1     -37.122  -1.520  -5.888  0.00  0.00    +0.000 OA
ATOM     14  C   UNL     1     -36.189  -3.440  -6.927  0.00  0.00    +0.000 A 
ATOM     15  C   UNL     1     -35.144  -4.305  -7.173  0.00  0.00    +0.000 A 
ATOM     16  O   UNL     1     -35.327  -5.532  -7.823  0.00  0.00    +0.000 OA
ATOM     17  C   UNL     1     -33.887  -3.889  -6.751  0.00  0.00    +0.000 A 
ENDBRANCH   9  10
ENDBRANCH   7   8
BRANCH   1  18
ATOM     18  O   UNL     1     -33.525  -6.083  -2.554  0.00  0.00    +0.000 OA
BRANCH  18  19
ATOM     19  C   UNL     1     -34.087  -6.652  -3.903  0.00  0.00    +0.000 C 
ATOM     20  C   UNL     1     -35.489  -5.745  -3.760  0.00  0.00    +0.000 C 
BRANCH  19  21
ATOM     21  C   UNL     1     -34.808  -7.946  -3.115  0.00  0.00    +0.000 C 
BRANCH  21  22
ATOM     22  O   UNL     1     -35.969  -8.004  -3.855  0.00  0.00    +0.000 OA
BRANCH  22  23
ATOM     23  C   UNL     1     -35.824  -9.261  -4.748  0.00  0.00    +0.000 C 
ATOM     24  C   UNL     1     -37.335  -9.832  -4.275  0.00  0.00    +0.000 C 
BRANCH  23  25
ATOM     25  C   UNL     1     -36.494  -8.517  -6.100  0.00  0.00    +0.000 C 
BRANCH  25  26
ATOM     26  O   UNL     1     -36.742  -9.497  -6.995  0.00  0.00    +0.000 OA
BRANCH  26  27
ATOM     27  C   UNL     1     -35.514  -9.581  -7.927  0.00  0.00    +0.000 C 
ATOM     28  C   UNL     1     -36.066 -11.032  -8.578  0.00  0.00    +0.000 C 
BRANCH  27  29
ATOM     29  C   UNL     1     -36.321  -8.702  -9.114  0.00  0.00    +0.000 C 
BRANCH  29  31
ATOM     30  C   UNL     1     -35.226  -8.018 -10.442  0.00  0.00    +0.000 C 
ATOM     31  O   UNL     1     -35.188  -8.402  -9.887  0.00  0.00    +0.000 OA
ENDBRANCH  29  31
ENDBRANCH  27  29
ENDBRANCH  26  27
ENDBRANCH  25  26
ENDBRANCH  23  25
ENDBRANCH  22  23
ENDBRANCH  21  22
ENDBRANCH  19  21
ENDBRANCH  18  19
ENDBRANCH   1  18
TORSDOF 12
ENDMDL
MODEL 7
REMARK VINA RESULT:      -6.4      2.640      3.898
REMARK  Name = 
REMARK  12 active torsions:
REMARK  status: ('A' for Active; 'I' for Inactive)
REMARK    1  A    between atoms: O_2  and  C_3
REMARK    2  A    between atoms: C_3  and  C_4
REMARK    3  A    between atoms: C_4  and  O_6
REMARK    4  A    between atoms: O_6  and  C_7
REMARK    5  A    between atoms: C_7  and  C_8
REMARK    6  A    between atoms: C_8  and  O_10
REMARK    7  A    between atoms: O_10  and  C_11
REMARK    8  A    between atoms: C_11  and  C_12
REMARK    9  A    between atoms: C_12  and  O_14
REMARK   10  A    between atoms: O_14  and  C_15
REMARK   11  A    between atoms: C_21  and  C_22
REMARK   12  A    between atoms: C_23  and  C_24
REMARK                            x       y       z     vdW  Elec       q    Type
REMARK                         _______ _______ _______ _____ _____    ______ ____
ROOT
ATOM      1  C   UNL     1     -18.846  -2.283   7.240  0.00  0.00    +0.000 A 
ATOM      2  C   UNL     1     -18.925  -0.898   7.142  0.00  0.00    +0.000 A 
ATOM      3  C   UNL     1     -17.956  -0.134   6.542  0.00  0.00    +0.000 A 
ATOM      4  O   UNL     1     -17.935   1.234   6.819  0.00  0.00    +0.000 OA
ATOM      5  C   UNL     1     -16.794  -0.760   6.113  0.00  0.00    +0.000 A 
ATOM      6  C   UNL     1     -16.670  -2.106   6.322  0.00  0.00    +0.000 A 
ATOM      7  C   UNL     1     -17.743  -2.908   6.698  0.00  0.00    +0.000 A 
ENDROOT
BRANCH   7   8
ATOM      8  C   UNL     1     -17.469  -4.326   6.821  0.00  0.00    +0.000 C 
ATOM      9  C   UNL     1     -18.176  -5.300   6.312  0.00  0.00    +0.000 C 
BRANCH   9  10
ATOM     10  C   UNL     1     -17.671  -6.271   5.333  0.00  0.00    +0.000 A 
ATOM     11  C   UNL     1     -16.608  -6.026   4.498  0.00  0.00    +0.000 A 
ATOM     12  C   UNL     1     -16.347  -6.944   3.497  0.00  0.00    +0.000 A 
ATOM     13  O   UNL     1     -15.284  -6.783   2.602  0.00  0.00    +0.000 OA
ATOM     14  C   UNL     1     -17.240  -7.972   3.230  0.00  0.00    +0.000 A 
ATOM     15  C   UNL     1     -18.320  -8.190   4.059  0.00  0.00    +0.000 A 
ATOM     16  O   UNL     1     -19.359  -9.065   3.719  0.00  0.00    +0.000 OA
ATOM     17  C   UNL     1     -18.320  -7.498   5.265  0.00  0.00    +0.000 A 
ENDBRANCH   9  10
ENDBRANCH   7   8
BRANCH   1  18
ATOM     18  O   UNL     1     -19.666  -3.018   8.104  0.00  0.00    +0.000 OA
BRANCH  18  19
ATOM     19  C   UNL     1     -20.632  -2.027   8.840  0.00  0.00    +0.000 C 
ATOM     20  C   UNL     1     -20.916  -3.133  10.067  0.00  0.00    +0.000 C 
BRANCH  19  21
ATOM     21  C   UNL     1     -21.955  -2.597   7.979  0.00  0.00    +0.000 C 
BRANCH  21  22
ATOM     22  O   UNL     1     -22.436  -3.480   8.921  0.00  0.00    +0.000 OA
BRANCH  22  23
ATOM     23  C   UNL     1     -23.531  -4.298   8.194  0.00  0.00    +0.000 C 
ATOM     24  C   UNL     1     -24.534  -4.252   9.545  0.00  0.00    +0.000 C 
BRANCH  23  25
ATOM     25  C   UNL     1     -24.282  -2.936   7.552  0.00  0.00    +0.000 C 
BRANCH  25  26
ATOM     26  O   UNL     1     -25.587  -3.249   7.404  0.00  0.00    +0.000 OA
BRANCH  26  27
ATOM     27  C   UNL     1     -26.255  -2.074   6.659  0.00  0.00    +0.000 C 
ATOM     28  C   UNL     1     -25.867  -1.017   7.911  0.00  0.00    +0.000 C 
BRANCH  27  29
ATOM     29  C   UNL     1     -24.811  -1.720   5.869  0.00  0.00    +0.000 C 
BRANCH  29  31
ATOM     30  C   UNL     1     -25.656  -1.499   4.236  0.00  0.00    +0.000 C 
ATOM     31  O   UNL     1     -25.392  -1.128   4.736  0.00  0.00    +0.000 OA
ENDBRANCH  29  31
ENDBRANCH  27  29
ENDBRANCH  26  27
ENDBRANCH  25  26
ENDBRANCH  23  25
ENDBRANCH  22  23
ENDBRANCH  21  22
ENDBRANCH  19  21
ENDBRANCH  18  19
ENDBRANCH   1  18
TORSDOF 12
ENDMDL
MODEL 8
REMARK VINA RESULT:      -6.4      3.142      5.734
REMARK  Name = 
REMARK  12 active torsions:
REMARK  status: ('A' for Active; 'I' for Inactive)
REMARK    1  A    between atoms: O_2  and  C_3
REMARK    2  A    between atoms: C_3  and  C_4
REMARK    3  A    between atoms: C_4  and  O_6
REMARK    4  A    between atoms: O_6  and  C_7
REMARK    5  A    between atoms: C_7  and  C_8
REMARK    6  A    between atoms: C_8  and  O_10
REMARK    7  A    between atoms: O_10  and  C_11
REMARK    8  A    between atoms: C_11  and  C_12
REMARK    9  A    between atoms: C_12  and  O_14
REMARK   10  A    between atoms: O_14  and  C_15
REMARK   11  A    between atoms: C_21  and  C_22
REMARK   12  A    between atoms: C_23  and  C_24
REMARK                            x       y       z     vdW  Elec       q    Type
REMARK                         _______ _______ _______ _____ _____    ______ ____
ROOT
ATOM      1  C   UNL     1     -18.717  -2.384   7.186  0.00  0.00    +0.000 A 
ATOM      2  C   UNL     1     -18.805  -0.999   7.096  0.00  0.00    +0.000 A 
ATOM      3  C   UNL     1     -17.868  -0.229   6.453  0.00  0.00    +0.000 A 
ATOM      4  O   UNL     1     -17.839   1.137   6.733  0.00  0.00    +0.000 OA
ATOM      5  C   UNL     1     -16.726  -0.851   5.968  0.00  0.00    +0.000 A 
ATOM      6  C   UNL     1     -16.588  -2.197   6.167  0.00  0.00    +0.000 A 
ATOM      7  C   UNL     1     -17.638  -3.003   6.590  0.00  0.00    +0.000 A 
ENDROOT
BRANCH   7   8
ATOM      8  C   UNL     1     -17.354  -4.421   6.695  0.00  0.00    +0.000 C 
ATOM      9  C   UNL     1     -18.167  -5.400   6.399  0.00  0.00    +0.000 C 
BRANCH   9  10
ATOM     10  C   UNL     1     -17.911  -6.410   5.364  0.00  0.00    +0.000 A 
ATOM     11  C   UNL     1     -18.804  -7.398   5.029  0.00  0.00    +0.000 A 
ATOM     12  C   UNL     1     -18.372  -8.397   4.174  0.00  0.00    +0.000 A 
ATOM     13  O   UNL     1     -19.211  -9.442   3.772  0.00  0.00    +0.000 OA
ATOM     14  C   UNL     1     -17.034  -8.497   3.822  0.00  0.00    +0.000 A 
ATOM     15  C   UNL     1     -16.141  -7.512   4.190  0.00  0.00    +0.000 A 
ATOM     16  O   UNL     1     -14.757  -7.668   4.049  0.00  0.00    +0.000 OA
ATOM     17  C   UNL     1     -16.691  -6.343   4.702  0.00  0.00    +0.000 A 
ENDBRANCH   9  10
ENDBRANCH   7   8
BRANCH   1  18
ATOM     18  O   UNL     1     -19.493  -3.125   8.085  0.00  0.00    +0.000 OA
BRANCH  18  19
ATOM     19  C   UNL     1     -19.385  -2.461   9.501  0.00  0.00    +0.000 C 
ATOM     20  C   UNL     1     -18.971  -3.922  10.210  0.00  0.00    +0.000 C 
BRANCH  19  21
ATOM     21  C   UNL     1     -21.010  -2.737   9.811  0.00  0.00    +0.000 C 
BRANCH  21  22
ATOM     22  O   UNL     1     -21.054  -4.069   9.458  0.00  0.00    +0.000 OA
BRANCH  22  23
ATOM     23  C   UNL     1     -22.489  -4.538   9.803  0.00  0.00    +0.000 C 
ATOM     24  C   UNL     1     -23.126  -3.737   8.467  0.00  0.00    +0.000 C 
BRANCH  23  25
ATOM     25  C   UNL     1     -22.356  -5.965   8.923  0.00  0.00    +0.000 C 
BRANCH  25  26
ATOM     26  O   UNL     1     -21.052  -6.315   8.951  0.00  0.00    +0.000 OA
BRANCH  26  27
ATOM     27  C   UNL     1     -20.986  -7.783   9.424  0.00  0.00    +0.000 C 
ATOM     28  C   UNL     1     -21.002  -8.331   7.833  0.00  0.00    +0.000 C 
BRANCH  27  29
ATOM     29  C   UNL     1     -19.303  -7.734   9.426  0.00  0.00    +0.000 C 
BRANCH  29  31
ATOM     30  C   UNL     1     -18.571  -7.610  11.123  0.00  0.00    +0.000 C 
ATOM     31  O   UNL     1     -19.145  -7.801  10.820  0.00  0.00    +0.000 OA
ENDBRANCH  29  31
ENDBRANCH  27  29
ENDBRANCH  26  27
ENDBRANCH  25  26
ENDBRANCH  23  25
ENDBRANCH  22  23
ENDBRANCH  21  22
ENDBRANCH  19  21
ENDBRANCH  18  19
ENDBRANCH   1  18
TORSDOF 12
ENDMDL
MODEL 9
REMARK VINA RESULT:      -6.2      3.613      7.362
REMARK  Name = 
REMARK  12 active torsions:
REMARK  status: ('A' for Active; 'I' for Inactive)
REMARK    1  A    between atoms: O_2  and  C_3
REMARK    2  A    between atoms: C_3  and  C_4
REMARK    3  A    between atoms: C_4  and  O_6
REMARK    4  A    between atoms: O_6  and  C_7
REMARK    5  A    between atoms: C_7  and  C_8
REMARK    6  A    between atoms: C_8  and  O_10
REMARK    7  A    between atoms: O_10  and  C_11
REMARK    8  A    between atoms: C_11  and  C_12
REMARK    9  A    between atoms: C_12  and  O_14
REMARK   10  A    between atoms: O_14  and  C_15
REMARK   11  A    between atoms: C_21  and  C_22
REMARK   12  A    between atoms: C_23  and  C_24
REMARK                            x       y       z     vdW  Elec       q    Type
REMARK                         _______ _______ _______ _____ _____    ______ ____
ROOT
ATOM      1  C   UNL     1     -17.995  -7.228   5.338  0.00  0.00    +0.000 A 
ATOM      2  C   UNL     1     -17.303  -8.075   4.480  0.00  0.00    +0.000 A 
ATOM      3  C   UNL     1     -16.114  -7.732   3.886  0.00  0.00    +0.000 A 
ATOM      4  O   UNL     1     -15.698  -8.471   2.778  0.00  0.00    +0.000 OA
ATOM      5  C   UNL     1     -15.638  -6.440   4.063  0.00  0.00    +0.000 A 
ATOM      6  C   UNL     1     -16.387  -5.572   4.809  0.00  0.00    +0.000 A 
ATOM      7  C   UNL     1     -17.448  -5.990   5.604  0.00  0.00    +0.000 A 
ENDROOT
BRANCH   7   8
ATOM      8  C   UNL     1     -18.106  -4.961   6.386  0.00  0.00    +0.000 C 
ATOM      9  C   UNL     1     -17.522  -4.012   7.068  0.00  0.00    +0.000 C 
BRANCH   9  10
ATOM     10  C   UNL     1     -17.699  -2.576   6.815  0.00  0.00    +0.000 A 
ATOM     11  C   UNL     1     -18.927  -1.964   6.741  0.00  0.00    +0.000 A 
ATOM     12  C   UNL     1     -18.967  -0.648   6.314  0.00  0.00    +0.000 A 
ATOM     13  O   UNL     1     -20.169   0.061   6.211  0.00  0.00    +0.000 OA
ATOM     14  C   UNL     1     -17.833  -0.035   5.802  0.00  0.00    +0.000 A 
ATOM     15  C   UNL     1     -16.612  -0.673   5.856  0.00  0.00    +0.000 A 
ATOM     16  O   UNL     1     -15.489  -0.197   5.169  0.00  0.00    +0.000 OA
ATOM     17  C   UNL     1     -16.549  -1.817   6.644  0.00  0.00    +0.000 A 
ENDBRANCH   9  10
ENDBRANCH   7   8
BRANCH   1  18
ATOM     18  O   UNL     1     -19.330  -7.452   5.692  0.00  0.00    +0.000 OA
BRANCH  18  19
ATOM     19  C   UNL     1     -19.551  -8.996   5.853  0.00  0.00    +0.000 C 
ATOM     20  C   UNL     1     -20.548  -9.045   4.506  0.00  0.00    +0.000 C 
BRANCH  19  21
ATOM     21  C   UNL     1     -20.872  -8.754   6.859  0.00  0.00    +0.000 C 
BRANCH  21  22
ATOM     22  O   UNL     1     -20.248  -7.987   7.820  0.00  0.00    +0.000 OA
BRANCH  22  23
ATOM     23  C   UNL     1     -21.097  -8.169   9.103  0.00  0.00    +0.000 C 
ATOM     24  C   UNL     1     -19.765  -7.863  10.086  0.00  0.00    +0.000 C 
BRANCH  23  25
ATOM     25  C   UNL     1     -21.553  -6.551   9.166  0.00  0.00    +0.000 C 
BRANCH  25  26
ATOM     26  O   UNL     1     -20.501  -5.836   8.711  0.00  0.00    +0.000 OA
BRANCH  26  27
ATOM     27  C   UNL     1     -20.804  -4.350   9.001  0.00  0.00    +0.000 C 
ATOM     28  C   UNL     1     -22.048  -4.773  10.052  0.00  0.00    +0.000 C 
BRANCH  27  29
ATOM     29  C   UNL     1     -19.692  -4.343  10.265  0.00  0.00    +0.000 C 
BRANCH  29  31
ATOM     30  C   UNL     1     -18.806  -2.729  10.460  0.00  0.00    +0.000 C 
ATOM     31  O   UNL     1     -19.152  -3.076   9.993  0.00  0.00    +0.000 OA
ENDBRANCH  29  31
ENDBRANCH  27  29
ENDBRANCH  26  27
ENDBRANCH  25  26
ENDBRANCH  23  25
ENDBRANCH  22  23
ENDBRANCH  21  22
ENDBRANCH  19  21
ENDBRANCH  18  19
ENDBRANCH   1  18
TORSDOF 12
ENDMDL
MODEL 10
REMARK VINA RESULT:      -6.2      2.699      6.584
REMARK  Name = 
REMARK  12 active torsions:
REMARK  status: ('A' for Active; 'I' for Inactive)
REMARK    1  A    between atoms: O_2  and  C_3
REMARK    2  A    between atoms: C_3  and  C_4
REMARK    3  A    between atoms: C_4  and  O_6
REMARK    4  A    between atoms: O_6  and  C_7
REMARK    5  A    between atoms: C_7  and  C_8
REMARK    6  A    between atoms: C_8  and  O_10
REMARK    7  A    between atoms: O_10  and  C_11
REMARK    8  A    between atoms: C_11  and  C_12
REMARK    9  A    between atoms: C_12  and  O_14
REMARK   10  A    between atoms: O_14  and  C_15
REMARK   11  A    between atoms: C_21  and  C_22
REMARK   12  A    between atoms: C_23  and  C_24
REMARK                            x       y       z     vdW  Elec       q    Type
REMARK                         _______ _______ _______ _____ _____    ______ ____
ROOT
ATOM      1  C   UNL     1     -17.969  -7.273   5.601  0.00  0.00    +0.000 A 
ATOM      2  C   UNL     1     -17.357  -8.208   4.774  0.00  0.00    +0.000 A 
ATOM      3  C   UNL     1     -16.256  -7.922   4.006  0.00  0.00    +0.000 A 
ATOM      4  O   UNL     1     -15.951  -8.784   2.952  0.00  0.00    +0.000 OA
ATOM      5  C   UNL     1     -15.802  -6.612   3.968  0.00  0.00    +0.000 A 
ATOM      6  C   UNL     1     -16.483  -5.670   4.690  0.00  0.00    +0.000 A 
ATOM      7  C   UNL     1     -17.431  -6.004   5.650  0.00  0.00    +0.000 A 
ENDROOT
BRANCH   7   8
ATOM      8  C   UNL     1     -18.022  -4.897   6.377  0.00  0.00    +0.000 C 
ATOM      9  C   UNL     1     -17.384  -3.996   7.074  0.00  0.00    +0.000 C 
BRANCH   9  10
ATOM     10  C   UNL     1     -17.402  -2.556   6.787  0.00  0.00    +0.000 A 
ATOM     11  C   UNL     1     -16.458  -1.922   6.015  0.00  0.00    +0.000 A 
ATOM     12  C   UNL     1     -16.480  -0.540   5.972  0.00  0.00    +0.000 A 
ATOM     13  O   UNL     1     -15.563   0.193   5.211  0.00  0.00    +0.000 OA
ATOM     14  C   UNL     1     -17.302   0.181   6.826  0.00  0.00    +0.000 A 
ATOM     15  C   UNL     1     -18.226  -0.468   7.618  0.00  0.00    +0.000 A 
ATOM     16  O   UNL     1     -18.922   0.184   8.642  0.00  0.00    +0.000 OA
ATOM     17  C   UNL     1     -18.439  -1.813   7.337  0.00  0.00    +0.000 A 
ENDBRANCH   9  10
ENDBRANCH   7   8
BRANCH   1  18
ATOM     18  O   UNL     1     -19.246  -7.472   6.137  0.00  0.00    +0.000 OA
BRANCH  18  19
ATOM     19  C   UNL     1     -19.109  -8.315   7.452  0.00  0.00    +0.000 C 
ATOM     20  C   UNL     1     -20.041  -9.554   6.816  0.00  0.00    +0.000 C 
BRANCH  19  21
ATOM     21  C   UNL     1     -20.471  -7.593   8.117  0.00  0.00    +0.000 C 
BRANCH  21  22
ATOM     22  O   UNL     1     -19.892  -6.404   8.506  0.00  0.00    +0.000 OA
BRANCH  22  23
ATOM     23  C   UNL     1     -20.556  -6.049   9.859  0.00  0.00    +0.000 C 
ATOM     24  C   UNL     1     -19.564  -4.702  10.049  0.00  0.00    +0.000 C 
BRANCH  23  25
ATOM     25  C   UNL     1     -21.755  -5.104   9.151  0.00  0.00    +0.000 C 
BRANCH  25  26
ATOM     26  O   UNL     1     -22.873  -5.285   9.887  0.00  0.00    +0.000 OA
BRANCH  26  27
ATOM     27  C   UNL     1     -23.955  -4.350   9.306  0.00  0.00    +0.000 C 
ATOM     28  C   UNL     1     -22.792  -3.475   8.459  0.00  0.00    +0.000 C 
BRANCH  27  29
ATOM     29  C   UNL     1     -24.181  -5.383   7.996  0.00  0.00    +0.000 C 
BRANCH  29  31
ATOM     30  C   UNL     1     -25.989  -5.778   7.918  0.00  0.00    +0.000 C 
ATOM     31  O   UNL     1     -25.576  -5.241   7.922  0.00  0.00    +0.000 OA
ENDBRANCH  29  31
ENDBRANCH  27  29
ENDBRANCH  26  27
ENDBRANCH  25  26
ENDBRANCH  23  25
ENDBRANCH  22  23
ENDBRANCH  21  22
ENDBRANCH  19  21
ENDBRANCH  18  19
ENDBRANCH   1  18
TORSDOF 12
ENDMDL
