MODEL 1
REMARK VINA RESULT:      -6.3      0.000      0.000
REMARK  Name = 
REMARK  12 active torsions:
REMARK  status: ('A' for Active; 'I' for Inactive)
REMARK    1  A    between atoms: O_2  and  C_3
REMARK    2  A    between atoms: C_3  and  C_4
REMARK    3  A    between atoms: C_4  and  O_6
REMARK    4  A    between atoms: O_6  and  C_7
REMARK    5  A    between atoms: C_7  and  C_8
REMARK    6  A    between atoms: C_8  and  O_10
REMARK    7  A    between atoms: O_10  and  C_11
REMARK    8  A    between atoms: C_11  and  C_12
REMARK    9  A    between atoms: C_12  and  O_14
REMARK   10  A    between atoms: O_14  and  C_15
REMARK   11  A    between atoms: C_21  and  C_22
REMARK   12  A    between atoms: C_23  and  C_24
REMARK                            x       y       z     vdW  Elec       q    Type
REMARK                         _______ _______ _______ _____ _____    ______ ____
ROOT
ATOM      1  C   UNL     1     -30.511  -4.837  -4.111  0.00  0.00    +0.000 A 
ATOM      2  C   UNL     1     -29.195  -4.715  -3.674  0.00  0.00    +0.000 A 
ATOM      3  C   UNL     1     -28.239  -4.123  -4.497  0.00  0.00    +0.000 A 
ATOM      4  O   UNL     1     -27.006  -3.891  -3.923  0.00  0.00    +0.000 OA
ATOM      5  C   UNL     1     -28.725  -3.228  -5.446  0.00  0.00    +0.000 A 
ATOM      6  C   UNL     1     -30.094  -3.152  -5.696  0.00  0.00    +0.000 A 
ATOM      7  C   UNL     1     -30.964  -4.134  -5.228  0.00  0.00    +0.000 A 
ENDROOT
BRANCH   7   8
ATOM      8  C   UNL     1     -31.801  -4.954  -6.112  0.00  0.00    +0.000 C 
ATOM      9  C   UNL     1     -32.584  -4.561  -7.061  0.00  0.00    +0.000 C 
BRANCH   9  10
ATOM     10  C   UNL     1     -33.989  -4.214  -7.054  0.00  0.00    +0.000 A 
ATOM     11  C   UNL     1     -34.996  -5.029  -7.560  0.00  0.00    +0.000 A 
ATOM     12  C   UNL     1     -36.326  -4.822  -7.229  0.00  0.00    +0.000 A 
ATOM     13  O   UNL     1     -37.371  -5.538  -7.766  0.00  0.00    +0.000 OA
ATOM     14  C   UNL     1     -36.599  -4.035  -6.121  0.00  0.00    +0.000 A 
ATOM     15  C   UNL     1     -35.633  -3.161  -5.635  0.00  0.00    +0.000 A 
ATOM     16  O   UNL     1     -35.778  -2.504  -4.425  0.00  0.00    +0.000 OA
ATOM     17  C   UNL     1     -34.500  -3.069  -6.436  0.00  0.00    +0.000 A 
ENDBRANCH   9  10
ENDBRANCH   7   8
BRANCH   1  18
ATOM     18  O   UNL     1     -31.568  -5.145  -3.240  0.00  0.00    +0.000 OA
BRANCH  18  19
ATOM     19  C   UNL     1     -31.020  -6.113  -2.134  0.00  0.00    +0.000 C 
ATOM     20  C   UNL     1     -31.610  -5.120  -0.913  0.00  0.00    +0.000 C 
BRANCH  19  21
ATOM     21  C   UNL     1     -32.381  -7.083  -2.205  0.00  0.00    +0.000 C 
BRANCH  21  22
ATOM     22  O   UNL     1     -32.807  -7.179  -3.456  0.00  0.00    +0.000 OA
BRANCH  22  23
ATOM     23  C   UNL     1     -34.297  -7.587  -3.442  0.00  0.00    +0.000 C 
ATOM     24  C   UNL     1     -34.761  -5.970  -3.496  0.00  0.00    +0.000 C 
BRANCH  23  25
ATOM     25  C   UNL     1     -34.348  -7.699  -5.120  0.00  0.00    +0.000 C 
BRANCH  25  26
ATOM     26  O   UNL     1     -35.501  -8.433  -5.355  0.00  0.00    +0.000 OA
BRANCH  26  27
ATOM     27  C   UNL     1     -35.213  -9.237  -6.644  0.00  0.00    +0.000 C 
ATOM     28  C   UNL     1     -35.797 -10.649  -5.941  0.00  0.00    +0.000 C 
BRANCH  27  29
ATOM     29  C   UNL     1     -36.736  -8.885  -7.268  0.00  0.00    +0.000 C 
BRANCH  29  31
ATOM     30  C   UNL     1     -36.672  -8.827  -9.492  0.00  0.00    +0.000 C 
ATOM     31  O   UNL     1     -36.713  -9.542  -8.506  0.00  0.00    +0.000 OA
ENDBRANCH  29  31
ENDBRANCH  27  29
ENDBRANCH  26  27
ENDBRANCH  25  26
ENDBRANCH  23  25
ENDBRANCH  22  23
ENDBRANCH  21  22
ENDBRANCH  19  21
ENDBRANCH  18  19
ENDBRANCH   1  18
TORSDOF 12
ENDMDL
MODEL 2
REMARK VINA RESULT:      -6.1     26.002     30.775
REMARK  Name = 
REMARK  12 active torsions:
REMARK  status: ('A' for Active; 'I' for Inactive)
REMARK    1  A    between atoms: O_2  and  C_3
REMARK    2  A    between atoms: C_3  and  C_4
REMARK    3  A    between atoms: C_4  and  O_6
REMARK    4  A    between atoms: O_6  and  C_7
REMARK    5  A    between atoms: C_7  and  C_8
REMARK    6  A    between atoms: C_8  and  O_10
REMARK    7  A    between atoms: O_10  and  C_11
REMARK    8  A    between atoms: C_11  and  C_12
REMARK    9  A    between atoms: C_12  and  O_14
REMARK   10  A    between atoms: O_14  and  C_15
REMARK   11  A    between atoms: C_21  and  C_22
REMARK   12  A    between atoms: C_23  and  C_24
REMARK                            x       y       z     vdW  Elec       q    Type
REMARK                         _______ _______ _______ _____ _____    ______ ____
ROOT
ATOM      1  C   UNL     1     -14.116  17.252   0.404  0.00  0.00    +0.000 A 
ATOM      2  C   UNL     1     -13.699  18.442   0.994  0.00  0.00    +0.000 A 
ATOM      3  C   UNL     1     -13.081  18.422   2.242  0.00  0.00    +0.000 A 
ATOM      4  O   UNL     1     -12.550  19.620   2.674  0.00  0.00    +0.000 OA
ATOM      5  C   UNL     1     -12.441  17.234   2.585  0.00  0.00    +0.000 A 
ATOM      6  C   UNL     1     -12.648  16.086   1.822  0.00  0.00    +0.000 A 
ATOM      7  C   UNL     1     -13.684  16.018   0.893  0.00  0.00    +0.000 A 
ENDROOT
BRANCH   7   8
ATOM      8  C   UNL     1     -14.764  15.027   0.966  0.00  0.00    +0.000 C 
ATOM      9  C   UNL     1     -15.201  14.397   2.005  0.00  0.00    +0.000 C 
BRANCH   9  10
ATOM     10  C   UNL     1     -14.816  13.126   2.580  0.00  0.00    +0.000 A 
ATOM     11  C   UNL     1     -15.467  11.924   2.322  0.00  0.00    +0.000 A 
ATOM     12  C   UNL     1     -14.871  10.706   2.609  0.00  0.00    +0.000 A 
ATOM     13  O   UNL     1     -15.499   9.491   2.459  0.00  0.00    +0.000 OA
ATOM     14  C   UNL     1     -13.500  10.691   2.812  0.00  0.00    +0.000 A 
ATOM     15  C   UNL     1     -12.834  11.867   3.138  0.00  0.00    +0.000 A 
ATOM     16  O   UNL     1     -11.452  11.948   3.157  0.00  0.00    +0.000 OA
ATOM     17  C   UNL     1     -13.677  12.949   3.370  0.00  0.00    +0.000 A 
ENDBRANCH   9  10
ENDBRANCH   7   8
BRANCH   1  18
ATOM     18  O   UNL     1     -14.467  17.166  -0.952  0.00  0.00    +0.000 OA
BRANCH  18  19
ATOM     19  C   UNL     1     -14.146  18.546  -1.625  0.00  0.00    +0.000 C 
ATOM     20  C   UNL     1     -12.615  18.018  -2.075  0.00  0.00    +0.000 C 
BRANCH  19  21
ATOM     21  C   UNL     1     -14.883  18.101  -3.060  0.00  0.00    +0.000 C 
BRANCH  21  22
ATOM     22  O   UNL     1     -14.002  18.119  -4.048  0.00  0.00    +0.000 OA
BRANCH  22  23
ATOM     23  C   UNL     1     -14.469  17.138  -5.147  0.00  0.00    +0.000 C 
ATOM     24  C   UNL     1     -15.621  18.246  -5.675  0.00  0.00    +0.000 C 
BRANCH  23  25
ATOM     25  C   UNL     1     -13.340  17.728  -6.245  0.00  0.00    +0.000 C 
BRANCH  25  26
ATOM     26  O   UNL     1     -12.156  17.716  -5.521  0.00  0.00    +0.000 OA
BRANCH  26  27
ATOM     27  C   UNL     1     -11.057  17.368  -6.552  0.00  0.00    +0.000 C 
ATOM     28  C   UNL     1     -12.109  17.657  -7.831  0.00  0.00    +0.000 C 
BRANCH  27  29
ATOM     29  C   UNL     1     -10.520  18.963  -6.597  0.00  0.00    +0.000 C 
BRANCH  29  31
ATOM     30  C   UNL     1      -9.052  19.966  -7.936  0.00  0.00    +0.000 C 
ATOM     31  O   UNL     1      -9.772  18.995  -7.782  0.00  0.00    +0.000 OA
ENDBRANCH  29  31
ENDBRANCH  27  29
ENDBRANCH  26  27
ENDBRANCH  25  26
ENDBRANCH  23  25
ENDBRANCH  22  23
ENDBRANCH  21  22
ENDBRANCH  19  21
ENDBRANCH  18  19
ENDBRANCH   1  18
TORSDOF 12
ENDMDL
MODEL 3
REMARK VINA RESULT:      -6.0     13.778     16.092
REMARK  Name = 
REMARK  12 active torsions:
REMARK  status: ('A' for Active; 'I' for Inactive)
REMARK    1  A    between atoms: O_2  and  C_3
REMARK    2  A    between atoms: C_3  and  C_4
REMARK    3  A    between atoms: C_4  and  O_6
REMARK    4  A    between atoms: O_6  and  C_7
REMARK    5  A    between atoms: C_7  and  C_8
REMARK    6  A    between atoms: C_8  and  O_10
REMARK    7  A    between atoms: O_10  and  C_11
REMARK    8  A    between atoms: C_11  and  C_12
REMARK    9  A    between atoms: C_12  and  O_14
REMARK   10  A    between atoms: O_14  and  C_15
REMARK   11  A    between atoms: C_21  and  C_22
REMARK   12  A    between atoms: C_23  and  C_24
REMARK                            x       y       z     vdW  Elec       q    Type
REMARK                         _______ _______ _______ _____ _____    ______ ____
ROOT
ATOM      1  C   UNL     1     -24.370   8.043  -3.706  0.00  0.00    +0.000 A 
ATOM      2  C   UNL     1     -23.575   8.369  -2.611  0.00  0.00    +0.000 A 
ATOM      3  C   UNL     1     -22.529   9.277  -2.755  0.00  0.00    +0.000 A 
ATOM      4  O   UNL     1     -21.903   9.670  -1.590  0.00  0.00    +0.000 OA
ATOM      5  C   UNL     1     -22.657  10.192  -3.797  0.00  0.00    +0.000 A 
ATOM      6  C   UNL     1     -23.647  10.014  -4.763  0.00  0.00    +0.000 A 
ATOM      7  C   UNL     1     -24.331   8.806  -4.874  0.00  0.00    +0.000 A 
ENDROOT
BRANCH   7   8
ATOM      8  C   UNL     1     -24.317   7.983  -6.089  0.00  0.00    +0.000 C 
ATOM      9  C   UNL     1     -24.400   8.372  -7.317  0.00  0.00    +0.000 C 
BRANCH   9  10
ATOM     10  C   UNL     1     -25.546   8.555  -8.184  0.00  0.00    +0.000 A 
ATOM     11  C   UNL     1     -25.689   7.945  -9.426  0.00  0.00    +0.000 A 
ATOM     12  C   UNL     1     -26.922   7.870 -10.054  0.00  0.00    +0.000 A 
ATOM     13  O   UNL     1     -27.109   7.361 -11.319  0.00  0.00    +0.000 OA
ATOM     14  C   UNL     1     -28.053   8.080  -9.281  0.00  0.00    +0.000 A 
ATOM     15  C   UNL     1     -27.949   8.747  -8.065  0.00  0.00    +0.000 A 
ATOM     16  O   UNL     1     -29.001   8.808  -7.168  0.00  0.00    +0.000 OA
ATOM     17  C   UNL     1     -26.686   9.274  -7.816  0.00  0.00    +0.000 A 
ENDBRANCH   9  10
ENDBRANCH   7   8
BRANCH   1  18
ATOM     18  O   UNL     1     -25.600   7.379  -3.574  0.00  0.00    +0.000 OA
BRANCH  18  19
ATOM     19  C   UNL     1     -26.592   8.340  -2.829  0.00  0.00    +0.000 C 
ATOM     20  C   UNL     1     -27.817   7.994  -3.928  0.00  0.00    +0.000 C 
BRANCH  19  21
ATOM     21  C   UNL     1     -27.036   7.154  -1.737  0.00  0.00    +0.000 C 
BRANCH  21  22
ATOM     22  O   UNL     1     -26.954   7.620  -0.500  0.00  0.00    +0.000 OA
BRANCH  22  23
ATOM     23  C   UNL     1     -27.040   6.432   0.485  0.00  0.00    +0.000 C 
ATOM     24  C   UNL     1     -28.339   5.791  -0.371  0.00  0.00    +0.000 C 
BRANCH  23  25
ATOM     25  C   UNL     1     -25.947   5.524  -0.415  0.00  0.00    +0.000 C 
BRANCH  25  26
ATOM     26  O   UNL     1     -25.437   4.628   0.514  0.00  0.00    +0.000 OA
BRANCH  26  27
ATOM     27  C   UNL     1     -24.368   3.816  -0.253  0.00  0.00    +0.000 C 
ATOM     28  C   UNL     1     -25.336   3.764  -1.627  0.00  0.00    +0.000 C 
BRANCH  27  29
ATOM     29  C   UNL     1     -23.618   5.219  -0.801  0.00  0.00    +0.000 C 
BRANCH  29  31
ATOM     30  C   UNL     1     -21.475   5.818  -0.741  0.00  0.00    +0.000 C 
ATOM     31  O   UNL     1     -22.258   4.886  -0.716  0.00  0.00    +0.000 OA
ENDBRANCH  29  31
ENDBRANCH  27  29
ENDBRANCH  26  27
ENDBRANCH  25  26
ENDBRANCH  23  25
ENDBRANCH  22  23
ENDBRANCH  21  22
ENDBRANCH  19  21
ENDBRANCH  18  19
ENDBRANCH   1  18
TORSDOF 12
ENDMDL
MODEL 4
REMARK VINA RESULT:      -5.8     13.487     17.366
REMARK  Name = 
REMARK  12 active torsions:
REMARK  status: ('A' for Active; 'I' for Inactive)
REMARK    1  A    between atoms: O_2  and  C_3
REMARK    2  A    between atoms: C_3  and  C_4
REMARK    3  A    between atoms: C_4  and  O_6
REMARK    4  A    between atoms: O_6  and  C_7
REMARK    5  A    between atoms: C_7  and  C_8
REMARK    6  A    between atoms: C_8  and  O_10
REMARK    7  A    between atoms: O_10  and  C_11
REMARK    8  A    between atoms: C_11  and  C_12
REMARK    9  A    between atoms: C_12  and  O_14
REMARK   10  A    between atoms: O_14  and  C_15
REMARK   11  A    between atoms: C_21  and  C_22
REMARK   12  A    between atoms: C_23  and  C_24
REMARK                            x       y       z     vdW  Elec       q    Type
REMARK                         _______ _______ _______ _____ _____    ______ ____
ROOT
ATOM      1  C   UNL     1     -24.371  10.681  -5.084  0.00  0.00    +0.000 A 
ATOM      2  C   UNL     1     -24.375  11.964  -4.542  0.00  0.00    +0.000 A 
ATOM      3  C   UNL     1     -23.574  12.258  -3.441  0.00  0.00    +0.000 A 
ATOM      4  O   UNL     1     -23.510  13.586  -3.076  0.00  0.00    +0.000 OA
ATOM      5  C   UNL     1     -22.448  11.455  -3.277  0.00  0.00    +0.000 A 
ATOM      6  C   UNL     1     -22.307  10.290  -4.030  0.00  0.00    +0.000 A 
ATOM      7  C   UNL     1     -23.383   9.759  -4.738  0.00  0.00    +0.000 A 
ENDROOT
BRANCH   7   8
ATOM      8  C   UNL     1     -23.922   8.416  -4.494  0.00  0.00    +0.000 C 
ATOM      9  C   UNL     1     -24.531   7.980  -3.442  0.00  0.00    +0.000 C 
BRANCH   9  10
ATOM     10  C   UNL     1     -24.028   7.336  -2.247  0.00  0.00    +0.000 A 
ATOM     11  C   UNL     1     -24.232   5.995  -1.939  0.00  0.00    +0.000 A 
ATOM     12  C   UNL     1     -23.460   5.349  -0.985  0.00  0.00    +0.000 A 
ATOM     13  O   UNL     1     -23.673   4.053  -0.576  0.00  0.00    +0.000 OA
ATOM     14  C   UNL     1     -22.266   5.945  -0.612  0.00  0.00    +0.000 A 
ATOM     15  C   UNL     1     -22.063   7.301  -0.847  0.00  0.00    +0.000 A 
ATOM     16  O   UNL     1     -20.826   7.899  -0.678  0.00  0.00    +0.000 OA
ATOM     17  C   UNL     1     -23.186   7.966  -1.326  0.00  0.00    +0.000 A 
ENDBRANCH   9  10
ENDBRANCH   7   8
BRANCH   1  18
ATOM     18  O   UNL     1     -24.913  10.396  -6.347  0.00  0.00    +0.000 OA
BRANCH  18  19
ATOM     19  C   UNL     1     -26.470  10.275  -6.191  0.00  0.00    +0.000 C 
ATOM     20  C   UNL     1     -26.716  11.581  -7.221  0.00  0.00    +0.000 C 
BRANCH  19  21
ATOM     21  C   UNL     1     -26.574   9.118  -7.395  0.00  0.00    +0.000 C 
BRANCH  21  22
ATOM     22  O   UNL     1     -26.392   9.678  -8.581  0.00  0.00    +0.000 OA
BRANCH  22  23
ATOM     23  C   UNL     1     -25.903   8.596  -9.570  0.00  0.00    +0.000 C 
ATOM     24  C   UNL     1     -26.384   7.380  -8.510  0.00  0.00    +0.000 C 
BRANCH  23  25
ATOM     25  C   UNL     1     -27.388   8.553 -10.358  0.00  0.00    +0.000 C 
BRANCH  25  26
ATOM     26  O   UNL     1     -27.467   7.246 -10.817  0.00  0.00    +0.000 OA
BRANCH  26  27
ATOM     27  C   UNL     1     -28.705   7.218 -11.744  0.00  0.00    +0.000 C 
ATOM     28  C   UNL     1     -28.557   5.556 -11.957  0.00  0.00    +0.000 C 
BRANCH  27  29
ATOM     29  C   UNL     1     -29.743   6.986 -10.440  0.00  0.00    +0.000 C 
BRANCH  29  31
ATOM     30  C   UNL     1     -31.863   6.308 -10.454  0.00  0.00    +0.000 C 
ATOM     31  O   UNL     1     -30.782   6.238 -11.011  0.00  0.00    +0.000 OA
ENDBRANCH  29  31
ENDBRANCH  27  29
ENDBRANCH  26  27
ENDBRANCH  25  26
ENDBRANCH  23  25
ENDBRANCH  22  23
ENDBRANCH  21  22
ENDBRANCH  19  21
ENDBRANCH  18  19
ENDBRANCH   1  18
TORSDOF 12
ENDMDL
MODEL 5
REMARK VINA RESULT:      -5.5     13.051     16.583
REMARK  Name = 
REMARK  12 active torsions:
REMARK  status: ('A' for Active; 'I' for Inactive)
REMARK    1  A    between atoms: O_2  and  C_3
REMARK    2  A    between atoms: C_3  and  C_4
REMARK    3  A    between atoms: C_4  and  O_6
REMARK    4  A    between atoms: O_6  and  C_7
REMARK    5  A    between atoms: C_7  and  C_8
REMARK    6  A    between atoms: C_8  and  O_10
REMARK    7  A    between atoms: O_10  and  C_11
REMARK    8  A    between atoms: C_11  and  C_12
REMARK    9  A    between atoms: C_12  and  O_14
REMARK   10  A    between atoms: O_14  and  C_15
REMARK   11  A    between atoms: C_21  and  C_22
REMARK   12  A    between atoms: C_23  and  C_24
REMARK                            x       y       z     vdW  Elec       q    Type
REMARK                         _______ _______ _______ _____ _____    ______ ____
ROOT
ATOM      1  C   UNL     1     -26.135   8.539  -6.927  0.00  0.00    +0.000 A 
ATOM      2  C   UNL     1     -27.391   9.099  -6.710  0.00  0.00    +0.000 A 
ATOM      3  C   UNL     1     -27.542  10.134  -5.790  0.00  0.00    +0.000 A 
ATOM      4  O   UNL     1     -28.780  10.742  -5.762  0.00  0.00    +0.000 OA
ATOM      5  C   UNL     1     -26.405  10.899  -5.542  0.00  0.00    +0.000 A 
ATOM      6  C   UNL     1     -25.162  10.469  -6.003  0.00  0.00    +0.000 A 
ATOM      7  C   UNL     1     -24.979   9.166  -6.462  0.00  0.00    +0.000 A 
ENDROOT
BRANCH   7   8
ATOM      8  C   UNL     1     -24.029   8.227  -5.854  0.00  0.00    +0.000 C 
ATOM      9  C   UNL     1     -24.191   7.498  -4.800  0.00  0.00    +0.000 C 
BRANCH   9  10
ATOM     10  C   UNL     1     -23.893   7.757  -3.407  0.00  0.00    +0.000 A 
ATOM     11  C   UNL     1     -23.556   6.771  -2.486  0.00  0.00    +0.000 A 
ATOM     12  C   UNL     1     -22.954   7.089  -1.278  0.00  0.00    +0.000 A 
ATOM     13  O   UNL     1     -22.680   6.169  -0.292  0.00  0.00    +0.000 OA
ATOM     14  C   UNL     1     -22.370   8.341  -1.159  0.00  0.00    +0.000 A 
ATOM     15  C   UNL     1     -22.739   9.364  -2.025  0.00  0.00    +0.000 A 
ATOM     16  O   UNL     1     -22.051  10.564  -2.080  0.00  0.00    +0.000 OA
ATOM     17  C   UNL     1     -23.801   9.041  -2.863  0.00  0.00    +0.000 A 
ENDBRANCH   9  10
ENDBRANCH   7   8
BRANCH   1  18
ATOM     18  O   UNL     1     -25.858   7.715  -8.029  0.00  0.00    +0.000 OA
BRANCH  18  19
ATOM     19  C   UNL     1     -26.558   8.338  -9.288  0.00  0.00    +0.000 C 
ATOM     20  C   UNL     1     -25.128   8.269 -10.169  0.00  0.00    +0.000 C 
BRANCH  19  21
ATOM     21  C   UNL     1     -27.119   6.848  -9.803  0.00  0.00    +0.000 C 
BRANCH  21  22
ATOM     22  O   UNL     1     -28.342   6.969 -10.298  0.00  0.00    +0.000 OA
BRANCH  22  23
ATOM     23  C   UNL     1     -28.446   6.108 -11.577  0.00  0.00    +0.000 C 
ATOM     24  C   UNL     1     -28.702   4.726 -10.652  0.00  0.00    +0.000 C 
BRANCH  23  25
ATOM     25  C   UNL     1     -30.101   6.380 -11.703  0.00  0.00    +0.000 C 
BRANCH  25  26
ATOM     26  O   UNL     1     -30.589   5.943 -10.481  0.00  0.00    +0.000 OA
BRANCH  26  27
ATOM     27  C   UNL     1     -32.115   6.189 -10.543  0.00  0.00    +0.000 C 
ATOM     28  C   UNL     1     -32.241   6.078  -8.870  0.00  0.00    +0.000 C 
BRANCH  27  29
ATOM     29  C   UNL     1     -31.904   7.856 -10.445  0.00  0.00    +0.000 C 
BRANCH  29  31
ATOM     30  C   UNL     1     -32.725   9.337 -11.889  0.00  0.00    +0.000 C 
ATOM     31  O   UNL     1     -32.959   8.340 -11.230  0.00  0.00    +0.000 OA
ENDBRANCH  29  31
ENDBRANCH  27  29
ENDBRANCH  26  27
ENDBRANCH  25  26
ENDBRANCH  23  25
ENDBRANCH  22  23
ENDBRANCH  21  22
ENDBRANCH  19  21
ENDBRANCH  18  19
ENDBRANCH   1  18
TORSDOF 12
ENDMDL
MODEL 6
REMARK VINA RESULT:      -5.5      2.722      7.566
REMARK  Name = 
REMARK  12 active torsions:
REMARK  status: ('A' for Active; 'I' for Inactive)
REMARK    1  A    between atoms: O_2  and  C_3
REMARK    2  A    between atoms: C_3  and  C_4
REMARK    3  A    between atoms: C_4  and  O_6
REMARK    4  A    between atoms: O_6  and  C_7
REMARK    5  A    between atoms: C_7  and  C_8
REMARK    6  A    between atoms: C_8  and  O_10
REMARK    7  A    between atoms: O_10  and  C_11
REMARK    8  A    between atoms: C_11  and  C_12
REMARK    9  A    between atoms: C_12  and  O_14
REMARK   10  A    between atoms: O_14  and  C_15
REMARK   11  A    between atoms: C_21  and  C_22
REMARK   12  A    between atoms: C_23  and  C_24
REMARK                            x       y       z     vdW  Elec       q    Type
REMARK                         _______ _______ _______ _____ _____    ______ ____
ROOT
ATOM      1  C   UNL     1     -35.861  -5.852  -7.739  0.00  0.00    +0.000 A 
ATOM      2  C   UNL     1     -36.261  -4.542  -7.492  0.00  0.00    +0.000 A 
ATOM      3  C   UNL     1     -37.229  -3.946  -8.297  0.00  0.00    +0.000 A 
ATOM      4  O   UNL     1     -37.687  -2.713  -7.881  0.00  0.00    +0.000 OA
ATOM      5  C   UNL     1     -38.110  -4.816  -8.935  0.00  0.00    +0.000 A 
ATOM      6  C   UNL     1     -37.848  -6.185  -8.949  0.00  0.00    +0.000 A 
ATOM      7  C   UNL     1     -36.598  -6.681  -8.586  0.00  0.00    +0.000 A 
ENDROOT
BRANCH   7   8
ATOM      8  C   UNL     1     -35.749  -7.462  -9.494  0.00  0.00    +0.000 C 
ATOM      9  C   UNL     1     -35.517  -7.254 -10.746  0.00  0.00    +0.000 C 
BRANCH   9  10
ATOM     10  C   UNL     1     -36.188  -7.738 -11.934  0.00  0.00    +0.000 A 
ATOM     11  C   UNL     1     -35.610  -7.768 -13.199  0.00  0.00    +0.000 A 
ATOM     12  C   UNL     1     -36.146  -8.541 -14.218  0.00  0.00    +0.000 A 
ATOM     13  O   UNL     1     -35.672  -8.542 -15.510  0.00  0.00    +0.000 OA
ATOM     14  C   UNL     1     -37.032  -9.547 -13.865  0.00  0.00    +0.000 A 
ATOM     15  C   UNL     1     -37.675  -9.506 -12.633  0.00  0.00    +0.000 A 
ATOM     16  O   UNL     1     -38.410 -10.575 -12.151  0.00  0.00    +0.000 OA
ATOM     17  C   UNL     1     -37.453  -8.334 -11.918  0.00  0.00    +0.000 A 
ENDBRANCH   9  10
ENDBRANCH   7   8
BRANCH   1  18
ATOM     18  O   UNL     1     -35.125  -6.603  -6.808  0.00  0.00    +0.000 OA
BRANCH  18  19
ATOM     19  C   UNL     1     -35.631  -6.225  -5.372  0.00  0.00    +0.000 C 
ATOM     20  C   UNL     1     -35.612  -7.837  -4.895  0.00  0.00    +0.000 C 
BRANCH  19  21
ATOM     21  C   UNL     1     -34.081  -5.895  -4.834  0.00  0.00    +0.000 C 
BRANCH  21  22
ATOM     22  O   UNL     1     -33.840  -4.595  -4.908  0.00  0.00    +0.000 OA
BRANCH  22  23
ATOM     23  C   UNL     1     -32.465  -4.382  -5.579  0.00  0.00    +0.000 C 
ATOM     24  C   UNL     1     -32.769  -2.734  -5.729  0.00  0.00    +0.000 C 
BRANCH  23  25
ATOM     25  C   UNL     1     -31.706  -4.149  -4.097  0.00  0.00    +0.000 C 
BRANCH  25  26
ATOM     26  O   UNL     1     -30.748  -5.152  -4.068  0.00  0.00    +0.000 OA
BRANCH  26  27
ATOM     27  C   UNL     1     -30.391  -5.326  -2.573  0.00  0.00    +0.000 C 
ATOM     28  C   UNL     1     -31.809  -4.553  -2.103  0.00  0.00    +0.000 C 
BRANCH  27  29
ATOM     29  C   UNL     1     -31.154  -6.824  -2.509  0.00  0.00    +0.000 C 
BRANCH  29  31
ATOM     30  C   UNL     1     -33.060  -7.455  -1.548  0.00  0.00    +0.000 C 
ATOM     31  O   UNL     1     -32.208  -6.587  -1.615  0.00  0.00    +0.000 OA
ENDBRANCH  29  31
ENDBRANCH  27  29
ENDBRANCH  26  27
ENDBRANCH  25  26
ENDBRANCH  23  25
ENDBRANCH  22  23
ENDBRANCH  21  22
ENDBRANCH  19  21
ENDBRANCH  18  19
ENDBRANCH   1  18
TORSDOF 12
ENDMDL
MODEL 7
REMARK VINA RESULT:      -5.5      2.757      7.604
REMARK  Name = 
REMARK  12 active torsions:
REMARK  status: ('A' for Active; 'I' for Inactive)
REMARK    1  A    between atoms: O_2  and  C_3
REMARK    2  A    between atoms: C_3  and  C_4
REMARK    3  A    between atoms: C_4  and  O_6
REMARK    4  A    between atoms: O_6  and  C_7
REMARK    5  A    between atoms: C_7  and  C_8
REMARK    6  A    between atoms: C_8  and  O_10
REMARK    7  A    between atoms: O_10  and  C_11
REMARK    8  A    between atoms: C_11  and  C_12
REMARK    9  A    between atoms: C_12  and  O_14
REMARK   10  A    between atoms: O_14  and  C_15
REMARK   11  A    between atoms: C_21  and  C_22
REMARK   12  A    between atoms: C_23  and  C_24
REMARK                            x       y       z     vdW  Elec       q    Type
REMARK                         _______ _______ _______ _____ _____    ______ ____
ROOT
ATOM      1  C   UNL     1     -35.951  -6.017  -7.920  0.00  0.00    +0.000 A 
ATOM      2  C   UNL     1     -36.641  -4.817  -7.772  0.00  0.00    +0.000 A 
ATOM      3  C   UNL     1     -37.650  -4.478  -8.671  0.00  0.00    +0.000 A 
ATOM      4  O   UNL     1     -38.393  -3.360  -8.353  0.00  0.00    +0.000 OA
ATOM      5  C   UNL     1     -38.272  -5.543  -9.317  0.00  0.00    +0.000 A 
ATOM      6  C   UNL     1     -37.722  -6.822  -9.239  0.00  0.00    +0.000 A 
ATOM      7  C   UNL     1     -36.425  -7.018  -8.769  0.00  0.00    +0.000 A 
ENDROOT
BRANCH   7   8
ATOM      8  C   UNL     1     -35.362  -7.630  -9.574  0.00  0.00    +0.000 C 
ATOM      9  C   UNL     1     -35.267  -7.685 -10.860  0.00  0.00    +0.000 C 
BRANCH   9  10
ATOM     10  C   UNL     1     -35.724  -8.679 -11.809  0.00  0.00    +0.000 A 
ATOM     11  C   UNL     1     -36.861  -9.460 -11.632  0.00  0.00    +0.000 A 
ATOM     12  C   UNL     1     -37.444 -10.135 -12.693  0.00  0.00    +0.000 A 
ATOM     13  O   UNL     1     -38.514 -10.991 -12.564  0.00  0.00    +0.000 OA
ATOM     14  C   UNL     1     -37.103  -9.736 -13.976  0.00  0.00    +0.000 A 
ATOM     15  C   UNL     1     -35.935  -9.011 -14.190  0.00  0.00    +0.000 A 
ATOM     16  O   UNL     1     -35.649  -8.421 -15.409  0.00  0.00    +0.000 OA
ATOM     17  C   UNL     1     -35.135  -8.881 -13.060  0.00  0.00    +0.000 A 
ENDBRANCH   9  10
ENDBRANCH   7   8
BRANCH   1  18
ATOM     18  O   UNL     1     -35.144  -6.552  -6.904  0.00  0.00    +0.000 OA
BRANCH  18  19
ATOM     19  C   UNL     1     -36.086  -7.167  -5.810  0.00  0.00    +0.000 C 
ATOM     20  C   UNL     1     -35.128  -8.544  -5.700  0.00  0.00    +0.000 C 
BRANCH  19  21
ATOM     21  C   UNL     1     -35.309  -6.348  -4.576  0.00  0.00    +0.000 C 
BRANCH  21  22
ATOM     22  O   UNL     1     -34.306  -7.076  -4.108  0.00  0.00    +0.000 OA
BRANCH  22  23
ATOM     23  C   UNL     1     -33.245  -6.127  -3.506  0.00  0.00    +0.000 C 
ATOM     24  C   UNL     1     -32.963  -7.209  -2.247  0.00  0.00    +0.000 C 
BRANCH  23  25
ATOM     25  C   UNL     1     -32.015  -6.814  -4.425  0.00  0.00    +0.000 C 
BRANCH  25  26
ATOM     26  O   UNL     1     -31.584  -5.761  -5.218  0.00  0.00    +0.000 OA
BRANCH  26  27
ATOM     27  C   UNL     1     -31.155  -4.657  -4.224  0.00  0.00    +0.000 C 
ATOM     28  C   UNL     1     -29.530  -5.028  -4.452  0.00  0.00    +0.000 C 
BRANCH  27  29
ATOM     29  C   UNL     1     -31.092  -3.504  -5.448  0.00  0.00    +0.000 C 
BRANCH  29  31
ATOM     30  C   UNL     1     -33.025  -2.638  -6.130  0.00  0.00    +0.000 C 
ATOM     31  O   UNL     1     -32.345  -3.646  -6.060  0.00  0.00    +0.000 OA
ENDBRANCH  29  31
ENDBRANCH  27  29
ENDBRANCH  26  27
ENDBRANCH  25  26
ENDBRANCH  23  25
ENDBRANCH  22  23
ENDBRANCH  21  22
ENDBRANCH  19  21
ENDBRANCH  18  19
ENDBRANCH   1  18
TORSDOF 12
ENDMDL
MODEL 8
REMARK VINA RESULT:      -5.4     24.114     28.662
REMARK  Name = 
REMARK  12 active torsions:
REMARK  status: ('A' for Active; 'I' for Inactive)
REMARK    1  A    between atoms: O_2  and  C_3
REMARK    2  A    between atoms: C_3  and  C_4
REMARK    3  A    between atoms: C_4  and  O_6
REMARK    4  A    between atoms: O_6  and  C_7
REMARK    5  A    between atoms: C_7  and  C_8
REMARK    6  A    between atoms: C_8  and  O_10
REMARK    7  A    between atoms: O_10  and  C_11
REMARK    8  A    between atoms: C_11  and  C_12
REMARK    9  A    between atoms: C_12  and  O_14
REMARK   10  A    between atoms: O_14  and  C_15
REMARK   11  A    between atoms: C_21  and  C_22
REMARK   12  A    between atoms: C_23  and  C_24
REMARK                            x       y       z     vdW  Elec       q    Type
REMARK                         _______ _______ _______ _____ _____    ______ ____
ROOT
ATOM      1  C   UNL     1     -14.412  17.254   0.491  0.00  0.00    +0.000 A 
ATOM      2  C   UNL     1     -13.862  18.395   1.070  0.00  0.00    +0.000 A 
ATOM      3  C   UNL     1     -13.055  18.283   2.200  0.00  0.00    +0.000 A 
ATOM      4  O   UNL     1     -12.417  19.437   2.604  0.00  0.00    +0.000 OA
ATOM      5  C   UNL     1     -12.414  17.058   2.370  0.00  0.00    +0.000 A 
ATOM      6  C   UNL     1     -12.782  15.965   1.588  0.00  0.00    +0.000 A 
ATOM      7  C   UNL     1     -13.955  15.982   0.836  0.00  0.00    +0.000 A 
ENDROOT
BRANCH   7   8
ATOM      8  C   UNL     1     -15.046  15.019   1.027  0.00  0.00    +0.000 C 
ATOM      9  C   UNL     1     -15.374  14.389   2.105  0.00  0.00    +0.000 C 
BRANCH   9  10
ATOM     10  C   UNL     1     -14.959  13.101   2.620  0.00  0.00    +0.000 A 
ATOM     11  C   UNL     1     -15.624  11.907   2.360  0.00  0.00    +0.000 A 
ATOM     12  C   UNL     1     -15.015  10.681   2.577  0.00  0.00    +0.000 A 
ATOM     13  O   UNL     1     -15.651   9.470   2.424  0.00  0.00    +0.000 OA
ATOM     14  C   UNL     1     -13.634  10.661   2.706  0.00  0.00    +0.000 A 
ATOM     15  C   UNL     1     -12.951  11.827   3.032  0.00  0.00    +0.000 A 
ATOM     16  O   UNL     1     -11.570  11.910   2.978  0.00  0.00    +0.000 OA
ATOM     17  C   UNL     1     -13.780  12.901   3.342  0.00  0.00    +0.000 A 
ENDBRANCH   9  10
ENDBRANCH   7   8
BRANCH   1  18
ATOM     18  O   UNL     1     -14.978  17.259  -0.794  0.00  0.00    +0.000 OA
BRANCH  18  19
ATOM     19  C   UNL     1     -15.945  18.491  -0.894  0.00  0.00    +0.000 C 
ATOM     20  C   UNL     1     -15.156  19.052  -2.268  0.00  0.00    +0.000 C 
BRANCH  19  21
ATOM     21  C   UNL     1     -17.095  17.613  -1.733  0.00  0.00    +0.000 C 
BRANCH  21  22
ATOM     22  O   UNL     1     -18.270  18.220  -1.665  0.00  0.00    +0.000 OA
BRANCH  22  23
ATOM     23  C   UNL     1     -18.571  18.555  -0.187  0.00  0.00    +0.000 C 
ATOM     24  C   UNL     1     -19.325  19.988  -0.644  0.00  0.00    +0.000 C 
BRANCH  23  25
ATOM     25  C   UNL     1     -20.033  17.724  -0.229  0.00  0.00    +0.000 C 
BRANCH  25  26
ATOM     26  O   UNL     1     -19.775  16.588   0.524  0.00  0.00    +0.000 OA
BRANCH  26  27
ATOM     27  C   UNL     1     -21.001  15.671   0.304  0.00  0.00    +0.000 C 
ATOM     28  C   UNL     1     -22.027  16.810   0.997  0.00  0.00    +0.000 C 
BRANCH  27  29
ATOM     29  C   UNL     1     -21.276  16.316  -1.227  0.00  0.00    +0.000 C 
BRANCH  29  31
ATOM     30  C   UNL     1     -21.833  14.875  -2.830  0.00  0.00    +0.000 C 
ATOM     31  O   UNL     1     -22.176  15.396  -1.783  0.00  0.00    +0.000 OA
ENDBRANCH  29  31
ENDBRANCH  27  29
ENDBRANCH  26  27
ENDBRANCH  25  26
ENDBRANCH  23  25
ENDBRANCH  22  23
ENDBRANCH  21  22
ENDBRANCH  19  21
ENDBRANCH  18  19
ENDBRANCH   1  18
TORSDOF 12
ENDMDL
MODEL 9
REMARK VINA RESULT:      -5.2     36.510     39.748
REMARK  Name = 
REMARK  12 active torsions:
REMARK  status: ('A' for Active; 'I' for Inactive)
REMARK    1  A    between atoms: O_2  and  C_3
REMARK    2  A    between atoms: C_3  and  C_4
REMARK    3  A    between atoms: C_4  and  O_6
REMARK    4  A    between atoms: O_6  and  C_7
REMARK    5  A    between atoms: C_7  and  C_8
REMARK    6  A    between atoms: C_8  and  O_10
REMARK    7  A    between atoms: O_10  and  C_11
REMARK    8  A    between atoms: C_11  and  C_12
REMARK    9  A    between atoms: C_12  and  O_14
REMARK   10  A    between atoms: O_14  and  C_15
REMARK   11  A    between atoms: C_21  and  C_22
REMARK   12  A    between atoms: C_23  and  C_24
REMARK                            x       y       z     vdW  Elec       q    Type
REMARK                         _______ _______ _______ _____ _____    ______ ____
ROOT
ATOM      1  C   UNL     1      -7.034   7.941 -30.075  0.00  0.00    +0.000 A 
ATOM      2  C   UNL     1      -8.112   8.522 -30.738  0.00  0.00    +0.000 A 
ATOM      3  C   UNL     1      -9.412   8.282 -30.298  0.00  0.00    +0.000 A 
ATOM      4  O   UNL     1     -10.402   9.028 -30.903  0.00  0.00    +0.000 OA
ATOM      5  C   UNL     1      -9.546   7.939 -28.955  0.00  0.00    +0.000 A 
ATOM      6  C   UNL     1      -8.418   7.616 -28.203  0.00  0.00    +0.000 A 
ATOM      7  C   UNL     1      -7.195   7.357 -28.818  0.00  0.00    +0.000 A 
ENDROOT
BRANCH   7   8
ATOM      8  C   UNL     1      -6.489   6.076 -28.694  0.00  0.00    +0.000 C 
ATOM      9  C   UNL     1      -5.996   5.342 -29.634  0.00  0.00    +0.000 C 
BRANCH   9  10
ATOM     10  C   UNL     1      -6.575   4.256 -30.398  0.00  0.00    +0.000 A 
ATOM     11  C   UNL     1      -6.553   2.924 -29.999  0.00  0.00    +0.000 A 
ATOM     12  C   UNL     1      -7.399   1.987 -30.570  0.00  0.00    +0.000 A 
ATOM     13  O   UNL     1      -7.362   0.642 -30.281  0.00  0.00    +0.000 OA
ATOM     14  C   UNL     1      -8.500   2.455 -31.271  0.00  0.00    +0.000 A 
ATOM     15  C   UNL     1      -8.519   3.763 -31.740  0.00  0.00    +0.000 A 
ATOM     16  O   UNL     1      -9.662   4.339 -32.267  0.00  0.00    +0.000 OA
ATOM     17  C   UNL     1      -7.319   4.444 -31.566  0.00  0.00    +0.000 A 
ENDBRANCH   9  10
ENDBRANCH   7   8
BRANCH   1  18
ATOM     18  O   UNL     1      -5.711   8.366 -30.272  0.00  0.00    +0.000 OA
BRANCH  18  19
ATOM     19  C   UNL     1      -5.465   8.488 -31.817  0.00  0.00    +0.000 C 
ATOM     20  C   UNL     1      -4.705   9.974 -31.621  0.00  0.00    +0.000 C 
BRANCH  19  21
ATOM     21  C   UNL     1      -4.056   7.590 -31.738  0.00  0.00    +0.000 C 
BRANCH  21  22
ATOM     22  O   UNL     1      -3.131   8.124 -32.521  0.00  0.00    +0.000 OA
BRANCH  22  23
ATOM     23  C   UNL     1      -1.788   7.404 -32.264  0.00  0.00    +0.000 C 
ATOM     24  C   UNL     1      -1.910   7.720 -30.616  0.00  0.00    +0.000 C 
BRANCH  23  25
ATOM     25  C   UNL     1      -2.548   5.916 -32.077  0.00  0.00    +0.000 C 
BRANCH  25  26
ATOM     26  O   UNL     1      -1.550   5.007 -32.398  0.00  0.00    +0.000 OA
BRANCH  26  27
ATOM     27  C   UNL     1      -2.157   3.617 -32.093  0.00  0.00    +0.000 C 
ATOM     28  C   UNL     1      -2.610   4.110 -30.551  0.00  0.00    +0.000 C 
BRANCH  27  29
ATOM     29  C   UNL     1      -3.654   4.075 -32.710  0.00  0.00    +0.000 C 
BRANCH  29  31
ATOM     30  C   UNL     1      -4.920   2.612 -33.811  0.00  0.00    +0.000 C 
ATOM     31  O   UNL     1      -4.343   2.856 -32.766  0.00  0.00    +0.000 OA
ENDBRANCH  29  31
ENDBRANCH  27  29
ENDBRANCH  26  27
ENDBRANCH  25  26
ENDBRANCH  23  25
ENDBRANCH  22  23
ENDBRANCH  21  22
ENDBRANCH  19  21
ENDBRANCH  18  19
ENDBRANCH   1  18
TORSDOF 12
ENDMDL
MODEL 10
REMARK VINA RESULT:      -5.2     27.819     32.125
REMARK  Name = 
REMARK  12 active torsions:
REMARK  status: ('A' for Active; 'I' for Inactive)
REMARK    1  A    between atoms: O_2  and  C_3
REMARK    2  A    between atoms: C_3  and  C_4
REMARK    3  A    between atoms: C_4  and  O_6
REMARK    4  A    between atoms: O_6  and  C_7
REMARK    5  A    between atoms: C_7  and  C_8
REMARK    6  A    between atoms: C_8  and  O_10
REMARK    7  A    between atoms: O_10  and  C_11
REMARK    8  A    between atoms: C_11  and  C_12
REMARK    9  A    between atoms: C_12  and  O_14
REMARK   10  A    between atoms: O_14  and  C_15
REMARK   11  A    between atoms: C_21  and  C_22
REMARK   12  A    between atoms: C_23  and  C_24
REMARK                            x       y       z     vdW  Elec       q    Type
REMARK                         _______ _______ _______ _____ _____    ______ ____
ROOT
ATOM      1  C   UNL     1     -18.921  18.265 -19.056  0.00  0.00    +0.000 A 
ATOM      2  C   UNL     1     -19.663  18.180 -20.231  0.00  0.00    +0.000 A 
ATOM      3  C   UNL     1     -20.889  18.834 -20.329  0.00  0.00    +0.000 A 
ATOM      4  O   UNL     1     -21.474  18.839 -21.579  0.00  0.00    +0.000 OA
ATOM      5  C   UNL     1     -21.058  19.938 -19.497  0.00  0.00    +0.000 A 
ATOM      6  C   UNL     1     -20.147  20.183 -18.471  0.00  0.00    +0.000 A 
ATOM      7  C   UNL     1     -19.231  19.210 -18.077  0.00  0.00    +0.000 A 
ENDROOT
BRANCH   7   8
ATOM      8  C   UNL     1     -19.181  18.657 -16.719  0.00  0.00    +0.000 C 
ATOM      9  C   UNL     1     -19.553  17.487 -16.319  0.00  0.00    +0.000 C 
BRANCH   9  10
ATOM     10  C   UNL     1     -20.824  17.012 -15.813  0.00  0.00    +0.000 A 
ATOM     11  C   UNL     1     -22.051  17.588 -16.124  0.00  0.00    +0.000 A 
ATOM     12  C   UNL     1     -23.241  16.910 -15.906  0.00  0.00    +0.000 A 
ATOM     13  O   UNL     1     -24.485  17.461 -16.110  0.00  0.00    +0.000 OA
ATOM     14  C   UNL     1     -23.176  15.538 -15.720  0.00  0.00    +0.000 A 
ATOM     15  C   UNL     1     -21.976  14.945 -15.342  0.00  0.00    +0.000 A 
ATOM     16  O   UNL     1     -21.806  13.571 -15.336  0.00  0.00    +0.000 OA
ATOM     17  C   UNL     1     -20.965  15.852 -15.046  0.00  0.00    +0.000 A 
ENDBRANCH   9  10
ENDBRANCH   7   8
BRANCH   1  18
ATOM     18  O   UNL     1     -17.570  17.889 -18.989  0.00  0.00    +0.000 OA
BRANCH  18  19
ATOM     19  C   UNL     1     -16.698  19.169 -19.237  0.00  0.00    +0.000 C 
ATOM     20  C   UNL     1     -15.557  18.661 -18.111  0.00  0.00    +0.000 C 
BRANCH  19  21
ATOM     21  C   UNL     1     -15.926  18.478 -20.550  0.00  0.00    +0.000 C 
BRANCH  21  22
ATOM     22  O   UNL     1     -15.086  17.539 -20.142  0.00  0.00    +0.000 OA
BRANCH  22  23
ATOM     23  C   UNL     1     -14.339  16.974 -21.371  0.00  0.00    +0.000 C 
ATOM     24  C   UNL     1     -15.239  17.958 -22.397  0.00  0.00    +0.000 C 
BRANCH  23  25
ATOM     25  C   UNL     1     -13.129  18.136 -21.252  0.00  0.00    +0.000 C 
BRANCH  25  26
ATOM     26  O   UNL     1     -12.282  17.615 -20.285  0.00  0.00    +0.000 OA
BRANCH  26  27
ATOM     27  C   UNL     1     -11.223  18.716 -20.041  0.00  0.00    +0.000 C 
ATOM     28  C   UNL     1     -11.314  19.215 -21.644  0.00  0.00    +0.000 C 
BRANCH  27  29
ATOM     29  C   UNL     1     -12.405  19.830 -19.599  0.00  0.00    +0.000 C 
BRANCH  29  31
ATOM     30  C   UNL     1     -12.688  21.036 -17.750  0.00  0.00    +0.000 C 
ATOM     31  O   UNL     1     -12.019  20.177 -18.297  0.00  0.00    +0.000 OA
ENDBRANCH  29  31
ENDBRANCH  27  29
ENDBRANCH  26  27
ENDBRANCH  25  26
ENDBRANCH  23  25
ENDBRANCH  22  23
ENDBRANCH  21  22
ENDBRANCH  19  21
ENDBRANCH  18  19
ENDBRANCH   1  18
TORSDOF 12
ENDMDL
