MODEL 1
REMARK VINA RESULT:      -6.5      0.000      0.000
REMARK  Name = 
REMARK  12 active torsions:
REMARK  status: ('A' for Active; 'I' for Inactive)
REMARK    1  A    between atoms: O_2  and  C_3
REMARK    2  A    between atoms: C_3  and  C_4
REMARK    3  A    between atoms: C_4  and  O_6
REMARK    4  A    between atoms: O_6  and  C_7
REMARK    5  A    between atoms: C_7  and  C_8
REMARK    6  A    between atoms: C_8  and  O_10
REMARK    7  A    between atoms: O_10  and  C_11
REMARK    8  A    between atoms: C_11  and  C_12
REMARK    9  A    between atoms: C_12  and  O_14
REMARK   10  A    between atoms: O_14  and  C_15
REMARK   11  A    between atoms: C_21  and  C_22
REMARK   12  A    between atoms: C_23  and  C_24
REMARK                            x       y       z     vdW  Elec       q    Type
REMARK                         _______ _______ _______ _____ _____    ______ ____
ROOT
ATOM      1  C   UNL     1     -18.678  -5.398   7.883  0.00  0.00    +0.000 A 
ATOM      2  C   UNL     1     -19.876  -5.846   8.439  0.00  0.00    +0.000 A 
ATOM      3  C   UNL     1     -20.302  -5.246   9.619  0.00  0.00    +0.000 A 
ATOM      4  O   UNL     1     -21.681  -5.329   9.847  0.00  0.00    +0.000 OA
ATOM      5  C   UNL     1     -19.556  -4.176  10.104  0.00  0.00    +0.000 A 
ATOM      6  C   UNL     1     -18.706  -3.489   9.241  0.00  0.00    +0.000 A 
ATOM      7  C   UNL     1     -18.241  -4.087   8.074  0.00  0.00    +0.000 A 
ENDROOT
BRANCH   7   8
ATOM      8  C   UNL     1     -18.102  -3.312   6.822  0.00  0.00    +0.000 C 
ATOM      9  C   UNL     1     -16.967  -2.792   6.425  0.00  0.00    +0.000 C 
BRANCH   9  10
ATOM     10  C   UNL     1     -16.685  -1.354   6.327  0.00  0.00    +0.000 A 
ATOM     11  C   UNL     1     -15.418  -0.884   6.001  0.00  0.00    +0.000 A 
ATOM     12  C   UNL     1     -15.199   0.484   5.886  0.00  0.00    +0.000 A 
ATOM     13  O   UNL     1     -14.335   1.019   4.926  0.00  0.00    +0.000 OA
ATOM     14  C   UNL     1     -16.146   1.371   6.384  0.00  0.00    +0.000 A 
ATOM     15  C   UNL     1     -17.160   0.855   7.155  0.00  0.00    +0.000 A 
ATOM     16  O   UNL     1     -18.115   1.708   7.693  0.00  0.00    +0.000 OA
ATOM     17  C   UNL     1     -17.553  -0.428   6.892  0.00  0.00    +0.000 A 
ENDBRANCH   9  10
ENDBRANCH   7   8
BRANCH   1  18
ATOM     18  O   UNL     1     -17.902  -6.175   7.063  0.00  0.00    +0.000 OA
BRANCH  18  19
ATOM     19  C   UNL     1     -18.557  -6.791   5.816  0.00  0.00    +0.000 C 
ATOM     20  C   UNL     1     -17.248  -6.466   4.871  0.00  0.00    +0.000 C 
BRANCH  19  21
ATOM     21  C   UNL     1     -18.026  -8.310   6.160  0.00  0.00    +0.000 C 
BRANCH  21  22
ATOM     22  O   UNL     1     -18.079  -9.011   4.972  0.00  0.00    +0.000 OA
BRANCH  22  23
ATOM     23  C   UNL     1     -18.421 -10.400   5.481  0.00  0.00    +0.000 C 
ATOM     24  C   UNL     1     -17.406 -10.224   6.771  0.00  0.00    +0.000 C 
BRANCH  23  25
ATOM     25  C   UNL     1     -17.247 -11.144   4.607  0.00  0.00    +0.000 C 
BRANCH  25  26
ATOM     26  O   UNL     1     -17.756 -11.743   3.551  0.00  0.00    +0.000 OA
BRANCH  26  27
ATOM     27  C   UNL     1     -16.689 -12.376   2.683  0.00  0.00    +0.000 C 
ATOM     28  C   UNL     1     -15.796 -11.000   2.495  0.00  0.00    +0.000 C 
BRANCH  27  29
ATOM     29  C   UNL     1     -15.816 -12.816   4.014  0.00  0.00    +0.000 C 
BRANCH  29  31
ATOM     30  C   UNL     1     -14.674 -14.380   3.746  0.00  0.00    +0.000 C 
ATOM     31  O   UNL     1     -15.295 -14.037   3.554  0.00  0.00    +0.000 OA
ENDBRANCH  29  31
ENDBRANCH  27  29
ENDBRANCH  26  27
ENDBRANCH  25  26
ENDBRANCH  23  25
ENDBRANCH  22  23
ENDBRANCH  21  22
ENDBRANCH  19  21
ENDBRANCH  18  19
ENDBRANCH   1  18
TORSDOF 12
ENDMDL
MODEL 2
REMARK VINA RESULT:      -6.4     20.480     24.115
REMARK  Name = 
REMARK  12 active torsions:
REMARK  status: ('A' for Active; 'I' for Inactive)
REMARK    1  A    between atoms: O_2  and  C_3
REMARK    2  A    between atoms: C_3  and  C_4
REMARK    3  A    between atoms: C_4  and  O_6
REMARK    4  A    between atoms: O_6  and  C_7
REMARK    5  A    between atoms: C_7  and  C_8
REMARK    6  A    between atoms: C_8  and  O_10
REMARK    7  A    between atoms: O_10  and  C_11
REMARK    8  A    between atoms: C_11  and  C_12
REMARK    9  A    between atoms: C_12  and  O_14
REMARK   10  A    between atoms: O_14  and  C_15
REMARK   11  A    between atoms: C_21  and  C_22
REMARK   12  A    between atoms: C_23  and  C_24
REMARK                            x       y       z     vdW  Elec       q    Type
REMARK                         _______ _______ _______ _____ _____    ______ ____
ROOT
ATOM      1  C   UNL     1     -27.819  10.007 -10.383  0.00  0.00    +0.000 A 
ATOM      2  C   UNL     1     -28.498  10.749  -9.417  0.00  0.00    +0.000 A 
ATOM      3  C   UNL     1     -29.053  11.962  -9.809  0.00  0.00    +0.000 A 
ATOM      4  O   UNL     1     -30.120  12.395  -9.013  0.00  0.00    +0.000 OA
ATOM      5  C   UNL     1     -28.979  12.297 -11.158  0.00  0.00    +0.000 A 
ATOM      6  C   UNL     1     -28.753  11.298 -12.100  0.00  0.00    +0.000 A 
ATOM      7  C   UNL     1     -28.165  10.091 -11.731  0.00  0.00    +0.000 A 
ENDROOT
BRANCH   7   8
ATOM      8  C   UNL     1     -28.618   8.811 -12.318  0.00  0.00    +0.000 C 
ATOM      9  C   UNL     1     -29.845   8.367 -12.201  0.00  0.00    +0.000 C 
BRANCH   9  10
ATOM     10  C   UNL     1     -30.241   7.166 -11.454  0.00  0.00    +0.000 A 
ATOM     11  C   UNL     1     -31.094   7.241 -10.359  0.00  0.00    +0.000 A 
ATOM     12  C   UNL     1     -31.470   6.078  -9.698  0.00  0.00    +0.000 A 
ATOM     13  O   UNL     1     -32.754   5.906  -9.171  0.00  0.00    +0.000 OA
ATOM     14  C   UNL     1     -30.770   4.901  -9.934  0.00  0.00    +0.000 A 
ATOM     15  C   UNL     1     -29.603   4.987 -10.655  0.00  0.00    +0.000 A 
ATOM     16  O   UNL     1     -28.857   3.840 -10.893  0.00  0.00    +0.000 OA
ATOM     17  C   UNL     1     -29.515   5.988 -11.582  0.00  0.00    +0.000 A 
ENDBRANCH   9  10
ENDBRANCH   7   8
BRANCH   1  18
ATOM     18  O   UNL     1     -26.837   9.102 -10.073  0.00  0.00    +0.000 OA
BRANCH  18  19
ATOM     19  C   UNL     1     -27.218   7.886  -9.212  0.00  0.00    +0.000 C 
ATOM     20  C   UNL     1     -26.404   6.840 -10.189  0.00  0.00    +0.000 C 
BRANCH  19  21
ATOM     21  C   UNL     1     -25.929   8.066  -8.204  0.00  0.00    +0.000 C 
BRANCH  21  22
ATOM     22  O   UNL     1     -26.455   8.292  -6.948  0.00  0.00    +0.000 OA
BRANCH  22  23
ATOM     23  C   UNL     1     -25.373   9.169  -6.344  0.00  0.00    +0.000 C 
ATOM     24  C   UNL     1     -24.186   8.232  -7.005  0.00  0.00    +0.000 C 
BRANCH  23  25
ATOM     25  C   UNL     1     -25.307   8.329  -4.934  0.00  0.00    +0.000 C 
BRANCH  25  26
ATOM     26  O   UNL     1     -24.216   7.594  -4.877  0.00  0.00    +0.000 OA
BRANCH  26  27
ATOM     27  C   UNL     1     -23.931   7.104  -3.473  0.00  0.00    +0.000 C 
ATOM     28  C   UNL     1     -23.544   8.586  -2.858  0.00  0.00    +0.000 C 
BRANCH  27  29
ATOM     29  C   UNL     1     -25.516   7.289  -3.047  0.00  0.00    +0.000 C 
BRANCH  29  31
ATOM     30  C   UNL     1     -26.084   6.140  -1.572  0.00  0.00    +0.000 C 
ATOM     31  O   UNL     1     -25.641   6.213  -2.154  0.00  0.00    +0.000 OA
ENDBRANCH  29  31
ENDBRANCH  27  29
ENDBRANCH  26  27
ENDBRANCH  25  26
ENDBRANCH  23  25
ENDBRANCH  22  23
ENDBRANCH  21  22
ENDBRANCH  19  21
ENDBRANCH  18  19
ENDBRANCH   1  18
TORSDOF 12
ENDMDL
MODEL 3
REMARK VINA RESULT:      -6.4     19.796     21.349
REMARK  Name = 
REMARK  12 active torsions:
REMARK  status: ('A' for Active; 'I' for Inactive)
REMARK    1  A    between atoms: O_2  and  C_3
REMARK    2  A    between atoms: C_3  and  C_4
REMARK    3  A    between atoms: C_4  and  O_6
REMARK    4  A    between atoms: O_6  and  C_7
REMARK    5  A    between atoms: C_7  and  C_8
REMARK    6  A    between atoms: C_8  and  O_10
REMARK    7  A    between atoms: O_10  and  C_11
REMARK    8  A    between atoms: C_11  and  C_12
REMARK    9  A    between atoms: C_12  and  O_14
REMARK   10  A    between atoms: O_14  and  C_15
REMARK   11  A    between atoms: C_21  and  C_22
REMARK   12  A    between atoms: C_23  and  C_24
REMARK                            x       y       z     vdW  Elec       q    Type
REMARK                         _______ _______ _______ _____ _____    ______ ____
ROOT
ATOM      1  C   UNL     1     -31.687  -3.996  -4.735  0.00  0.00    +0.000 A 
ATOM      2  C   UNL     1     -30.401  -3.936  -5.269  0.00  0.00    +0.000 A 
ATOM      3  C   UNL     1     -30.250  -4.227  -6.621  0.00  0.00    +0.000 A 
ATOM      4  O   UNL     1     -29.111  -3.667  -7.211  0.00  0.00    +0.000 OA
ATOM      5  C   UNL     1     -31.406  -4.456  -7.362  0.00  0.00    +0.000 A 
ATOM      6  C   UNL     1     -32.630  -4.002  -6.879  0.00  0.00    +0.000 A 
ATOM      7  C   UNL     1     -32.808  -3.740  -5.524  0.00  0.00    +0.000 A 
ENDROOT
BRANCH   7   8
ATOM      8  C   UNL     1     -33.613  -2.586  -5.069  0.00  0.00    +0.000 C 
ATOM      9  C   UNL     1     -34.712  -2.713  -4.368  0.00  0.00    +0.000 C 
BRANCH   9  10
ATOM     10  C   UNL     1     -36.059  -2.360  -4.836  0.00  0.00    +0.000 A 
ATOM     11  C   UNL     1     -37.194  -2.716  -4.117  0.00  0.00    +0.000 A 
ATOM     12  C   UNL     1     -38.449  -2.336  -4.577  0.00  0.00    +0.000 A 
ATOM     13  O   UNL     1     -39.476  -1.960  -3.706  0.00  0.00    +0.000 OA
ATOM     14  C   UNL     1     -38.587  -1.876  -5.881  0.00  0.00    +0.000 A 
ATOM     15  C   UNL     1     -37.510  -2.015  -6.724  0.00  0.00    +0.000 A 
ATOM     16  O   UNL     1     -37.612  -1.593  -8.043  0.00  0.00    +0.000 OA
ATOM     17  C   UNL     1     -36.266  -1.985  -6.158  0.00  0.00    +0.000 A 
ENDBRANCH   9  10
ENDBRANCH   7   8
BRANCH   1  18
ATOM     18  O   UNL     1     -31.931  -4.229  -3.406  0.00  0.00    +0.000 OA
BRANCH  18  19
ATOM     19  C   UNL     1     -31.057  -5.265  -2.680  0.00  0.00    +0.000 C 
ATOM     20  C   UNL     1     -31.750  -4.943  -1.221  0.00  0.00    +0.000 C 
BRANCH  19  21
ATOM     21  C   UNL     1     -32.095  -6.506  -2.984  0.00  0.00    +0.000 C 
BRANCH  21  22
ATOM     22  O   UNL     1     -33.317  -6.115  -2.473  0.00  0.00    +0.000 OA
BRANCH  22  23
ATOM     23  C   UNL     1     -34.212  -7.215  -3.014  0.00  0.00    +0.000 C 
ATOM     24  C   UNL     1     -33.345  -7.289  -4.417  0.00  0.00    +0.000 C 
BRANCH  23  25
ATOM     25  C   UNL     1     -35.290  -6.176  -3.688  0.00  0.00    +0.000 C 
BRANCH  25  26
ATOM     26  O   UNL     1     -35.248  -6.241  -5.002  0.00  0.00    +0.000 OA
BRANCH  26  27
ATOM     27  C   UNL     1     -36.611  -6.042  -5.629  0.00  0.00    +0.000 C 
ATOM     28  C   UNL     1     -36.044  -5.501  -7.082  0.00  0.00    +0.000 C 
BRANCH  27  29
ATOM     29  C   UNL     1     -36.633  -7.604  -6.165  0.00  0.00    +0.000 C 
BRANCH  29  31
ATOM     30  C   UNL     1     -37.746  -8.787  -5.078  0.00  0.00    +0.000 C 
ATOM     31  O   UNL     1     -37.661  -8.111  -5.354  0.00  0.00    +0.000 OA
ENDBRANCH  29  31
ENDBRANCH  27  29
ENDBRANCH  26  27
ENDBRANCH  25  26
ENDBRANCH  23  25
ENDBRANCH  22  23
ENDBRANCH  21  22
ENDBRANCH  19  21
ENDBRANCH  18  19
ENDBRANCH   1  18
TORSDOF 12
ENDMDL
MODEL 4
REMARK VINA RESULT:      -6.3     19.564     21.241
REMARK  Name = 
REMARK  12 active torsions:
REMARK  status: ('A' for Active; 'I' for Inactive)
REMARK    1  A    between atoms: O_2  and  C_3
REMARK    2  A    between atoms: C_3  and  C_4
REMARK    3  A    between atoms: C_4  and  O_6
REMARK    4  A    between atoms: O_6  and  C_7
REMARK    5  A    between atoms: C_7  and  C_8
REMARK    6  A    between atoms: C_8  and  O_10
REMARK    7  A    between atoms: O_10  and  C_11
REMARK    8  A    between atoms: C_11  and  C_12
REMARK    9  A    between atoms: C_12  and  O_14
REMARK   10  A    between atoms: O_14  and  C_15
REMARK   11  A    between atoms: C_21  and  C_22
REMARK   12  A    between atoms: C_23  and  C_24
REMARK                            x       y       z     vdW  Elec       q    Type
REMARK                         _______ _______ _______ _____ _____    ______ ____
ROOT
ATOM      1  C   UNL     1     -31.411  -4.540  -4.239  0.00  0.00    +0.000 A 
ATOM      2  C   UNL     1     -30.025  -4.397  -4.165  0.00  0.00    +0.000 A 
ATOM      3  C   UNL     1     -29.318  -4.355  -5.362  0.00  0.00    +0.000 A 
ATOM      4  O   UNL     1     -28.079  -3.708  -5.280  0.00  0.00    +0.000 OA
ATOM      5  C   UNL     1     -30.052  -4.356  -6.544  0.00  0.00    +0.000 A 
ATOM      6  C   UNL     1     -31.395  -3.991  -6.516  0.00  0.00    +0.000 A 
ATOM      7  C   UNL     1     -32.128  -4.061  -5.334  0.00  0.00    +0.000 A 
ENDROOT
BRANCH   7   8
ATOM      8  C   UNL     1     -33.126  -3.024  -4.993  0.00  0.00    +0.000 C 
ATOM      9  C   UNL     1     -34.380  -3.299  -4.731  0.00  0.00    +0.000 C 
BRANCH   9  10
ATOM     10  C   UNL     1     -35.524  -2.896  -5.559  0.00  0.00    +0.000 A 
ATOM     11  C   UNL     1     -35.776  -3.491  -6.790  0.00  0.00    +0.000 A 
ATOM     12  C   UNL     1     -36.887  -3.102  -7.528  0.00  0.00    +0.000 A 
ATOM     13  O   UNL     1     -37.631  -4.014  -8.284  0.00  0.00    +0.000 OA
ATOM     14  C   UNL     1     -37.559  -1.935  -7.188  0.00  0.00    +0.000 A 
ATOM     15  C   UNL     1     -36.970  -1.105  -6.264  0.00  0.00    +0.000 A 
ATOM     16  O   UNL     1     -37.594   0.085  -5.913  0.00  0.00    +0.000 OA
ATOM     17  C   UNL     1     -36.173  -1.690  -5.320  0.00  0.00    +0.000 A 
ENDBRANCH   9  10
ENDBRANCH   7   8
BRANCH   1  18
ATOM     18  O   UNL     1     -32.158  -5.081  -3.224  0.00  0.00    +0.000 OA
BRANCH  18  19
ATOM     19  C   UNL     1     -31.493  -6.127  -2.314  0.00  0.00    +0.000 C 
ATOM     20  C   UNL     1     -31.649  -5.177  -0.978  0.00  0.00    +0.000 C 
BRANCH  19  21
ATOM     21  C   UNL     1     -32.907  -6.913  -2.013  0.00  0.00    +0.000 C 
BRANCH  21  22
ATOM     22  O   UNL     1     -33.823  -6.411  -2.916  0.00  0.00    +0.000 OA
BRANCH  22  23
ATOM     23  C   UNL     1     -34.408  -7.698  -3.468  0.00  0.00    +0.000 C 
ATOM     24  C   UNL     1     -34.311  -7.129  -5.014  0.00  0.00    +0.000 C 
BRANCH  23  25
ATOM     25  C   UNL     1     -35.965  -7.192  -3.337  0.00  0.00    +0.000 C 
BRANCH  25  26
ATOM     26  O   UNL     1     -36.174  -6.122  -4.073  0.00  0.00    +0.000 OA
BRANCH  26  27
ATOM     27  C   UNL     1     -37.430  -5.382  -3.663  0.00  0.00    +0.000 C 
ATOM     28  C   UNL     1     -38.239  -5.638  -5.080  0.00  0.00    +0.000 C 
BRANCH  27  29
ATOM     29  C   UNL     1     -38.065  -6.755  -2.999  0.00  0.00    +0.000 C 
BRANCH  29  31
ATOM     30  C   UNL     1     -39.368  -6.316  -1.609  0.00  0.00    +0.000 C 
ATOM     31  O   UNL     1     -39.145  -6.193  -2.299  0.00  0.00    +0.000 OA
ENDBRANCH  29  31
ENDBRANCH  27  29
ENDBRANCH  26  27
ENDBRANCH  25  26
ENDBRANCH  23  25
ENDBRANCH  22  23
ENDBRANCH  21  22
ENDBRANCH  19  21
ENDBRANCH  18  19
ENDBRANCH   1  18
TORSDOF 12
ENDMDL
MODEL 5
REMARK VINA RESULT:      -6.3     19.732     22.127
REMARK  Name = 
REMARK  12 active torsions:
REMARK  status: ('A' for Active; 'I' for Inactive)
REMARK    1  A    between atoms: O_2  and  C_3
REMARK    2  A    between atoms: C_3  and  C_4
REMARK    3  A    between atoms: C_4  and  O_6
REMARK    4  A    between atoms: O_6  and  C_7
REMARK    5  A    between atoms: C_7  and  C_8
REMARK    6  A    between atoms: C_8  and  O_10
REMARK    7  A    between atoms: O_10  and  C_11
REMARK    8  A    between atoms: C_11  and  C_12
REMARK    9  A    between atoms: C_12  and  O_14
REMARK   10  A    between atoms: O_14  and  C_15
REMARK   11  A    between atoms: C_21  and  C_22
REMARK   12  A    between atoms: C_23  and  C_24
REMARK                            x       y       z     vdW  Elec       q    Type
REMARK                         _______ _______ _______ _____ _____    ______ ____
ROOT
ATOM      1  C   UNL     1     -31.897  -5.418  -4.500  0.00  0.00    +0.000 A 
ATOM      2  C   UNL     1     -30.925  -6.417  -4.470  0.00  0.00    +0.000 A 
ATOM      3  C   UNL     1     -30.062  -6.444  -3.380  0.00  0.00    +0.000 A 
ATOM      4  O   UNL     1     -29.490  -7.696  -3.124  0.00  0.00    +0.000 OA
ATOM      5  C   UNL     1     -30.296  -5.535  -2.352  0.00  0.00    +0.000 A 
ATOM      6  C   UNL     1     -31.551  -4.946  -2.232  0.00  0.00    +0.000 A 
ATOM      7  C   UNL     1     -32.413  -4.879  -3.322  0.00  0.00    +0.000 A 
ENDROOT
BRANCH   7   8
ATOM      8  C   UNL     1     -33.869  -5.080  -3.157  0.00  0.00    +0.000 C 
ATOM      9  C   UNL     1     -34.410  -6.257  -2.962  0.00  0.00    +0.000 C 
BRANCH   9  10
ATOM     10  C   UNL     1     -35.301  -6.944  -3.907  0.00  0.00    +0.000 A 
ATOM     11  C   UNL     1     -36.625  -7.221  -3.586  0.00  0.00    +0.000 A 
ATOM     12  C   UNL     1     -37.444  -7.844  -4.520  0.00  0.00    +0.000 A 
ATOM     13  O   UNL     1     -38.798  -7.519  -4.653  0.00  0.00    +0.000 OA
ATOM     14  C   UNL     1     -36.873  -8.451  -5.632  0.00  0.00    +0.000 A 
ATOM     15  C   UNL     1     -35.506  -8.589  -5.652  0.00  0.00    +0.000 A 
ATOM     16  O   UNL     1     -34.894  -9.212  -6.732  0.00  0.00    +0.000 OA
ATOM     17  C   UNL     1     -34.774  -7.647  -4.984  0.00  0.00    +0.000 A 
ENDBRANCH   9  10
ENDBRANCH   7   8
BRANCH   1  18
ATOM     18  O   UNL     1     -32.458  -4.959  -5.664  0.00  0.00    +0.000 OA
BRANCH  18  19
ATOM     19  C   UNL     1     -31.923  -3.646  -6.257  0.00  0.00    +0.000 C 
ATOM     20  C   UNL     1     -32.170  -4.152  -7.805  0.00  0.00    +0.000 C 
BRANCH  19  21
ATOM     21  C   UNL     1     -33.387  -2.898  -6.187  0.00  0.00    +0.000 C 
BRANCH  21  22
ATOM     22  O   UNL     1     -34.320  -3.852  -6.541  0.00  0.00    +0.000 OA
BRANCH  22  23
ATOM     23  C   UNL     1     -35.591  -3.022  -6.524  0.00  0.00    +0.000 C 
ATOM     24  C   UNL     1     -35.157  -2.308  -5.100  0.00  0.00    +0.000 C 
BRANCH  23  25
ATOM     25  C   UNL     1     -36.471  -4.160  -5.732  0.00  0.00    +0.000 C 
BRANCH  25  26
ATOM     26  O   UNL     1     -36.967  -3.675  -4.613  0.00  0.00    +0.000 OA
BRANCH  26  27
ATOM     27  C   UNL     1     -38.458  -3.908  -4.500  0.00  0.00    +0.000 C 
ATOM     28  C   UNL     1     -38.466  -4.127  -2.864  0.00  0.00    +0.000 C 
BRANCH  27  29
ATOM     29  C   UNL     1     -38.735  -2.289  -4.332  0.00  0.00    +0.000 C 
BRANCH  29  31
ATOM     30  C   UNL     1     -39.255  -1.604  -6.088  0.00  0.00    +0.000 C 
ATOM     31  O   UNL     1     -39.429  -2.049  -5.529  0.00  0.00    +0.000 OA
ENDBRANCH  29  31
ENDBRANCH  27  29
ENDBRANCH  26  27
ENDBRANCH  25  26
ENDBRANCH  23  25
ENDBRANCH  22  23
ENDBRANCH  21  22
ENDBRANCH  19  21
ENDBRANCH  18  19
ENDBRANCH   1  18
TORSDOF 12
ENDMDL
MODEL 6
REMARK VINA RESULT:      -6.2     20.440     22.709
REMARK  Name = 
REMARK  12 active torsions:
REMARK  status: ('A' for Active; 'I' for Inactive)
REMARK    1  A    between atoms: O_2  and  C_3
REMARK    2  A    between atoms: C_3  and  C_4
REMARK    3  A    between atoms: C_4  and  O_6
REMARK    4  A    between atoms: O_6  and  C_7
REMARK    5  A    between atoms: C_7  and  C_8
REMARK    6  A    between atoms: C_8  and  O_10
REMARK    7  A    between atoms: O_10  and  C_11
REMARK    8  A    between atoms: C_11  and  C_12
REMARK    9  A    between atoms: C_12  and  O_14
REMARK   10  A    between atoms: O_14  and  C_15
REMARK   11  A    between atoms: C_21  and  C_22
REMARK   12  A    between atoms: C_23  and  C_24
REMARK                            x       y       z     vdW  Elec       q    Type
REMARK                         _______ _______ _______ _____ _____    ______ ____
ROOT
ATOM      1  C   UNL     1     -32.022  -5.532  -4.323  0.00  0.00    +0.000 A 
ATOM      2  C   UNL     1     -31.039  -6.499  -4.115  0.00  0.00    +0.000 A 
ATOM      3  C   UNL     1     -30.326  -6.447  -2.922  0.00  0.00    +0.000 A 
ATOM      4  O   UNL     1     -29.764  -7.667  -2.529  0.00  0.00    +0.000 OA
ATOM      5  C   UNL     1     -30.714  -5.497  -1.982  0.00  0.00    +0.000 A 
ATOM      6  C   UNL     1     -31.988  -4.940  -2.057  0.00  0.00    +0.000 A 
ATOM      7  C   UNL     1     -32.701  -4.952  -3.252  0.00  0.00    +0.000 A 
ENDROOT
BRANCH   7   8
ATOM      8  C   UNL     1     -34.161  -5.189  -3.267  0.00  0.00    +0.000 C 
ATOM      9  C   UNL     1     -34.691  -6.377  -3.422  0.00  0.00    +0.000 C 
BRANCH   9  10
ATOM     10  C   UNL     1     -35.486  -6.803  -4.582  0.00  0.00    +0.000 A 
ATOM     11  C   UNL     1     -36.859  -6.597  -4.635  0.00  0.00    +0.000 A 
ATOM     12  C   UNL     1     -37.571  -6.986  -5.764  0.00  0.00    +0.000 A 
ATOM     13  O   UNL     1     -38.648  -6.242  -6.255  0.00  0.00    +0.000 OA
ATOM     14  C   UNL     1     -36.975  -7.836  -6.687  0.00  0.00    +0.000 A 
ATOM     15  C   UNL     1     -35.781  -8.422  -6.338  0.00  0.00    +0.000 A 
ATOM     16  O   UNL     1     -35.162  -9.298  -7.220  0.00  0.00    +0.000 OA
ATOM     17  C   UNL     1     -34.971  -7.725  -5.485  0.00  0.00    +0.000 A 
ENDBRANCH   9  10
ENDBRANCH   7   8
BRANCH   1  18
ATOM     18  O   UNL     1     -32.435  -5.148  -5.573  0.00  0.00    +0.000 OA
BRANCH  18  19
ATOM     19  C   UNL     1     -32.173  -3.697  -6.008  0.00  0.00    +0.000 C 
ATOM     20  C   UNL     1     -31.709  -4.152  -7.521  0.00  0.00    +0.000 C 
BRANCH  19  21
ATOM     21  C   UNL     1     -33.731  -3.448  -6.479  0.00  0.00    +0.000 C 
BRANCH  21  22
ATOM     22  O   UNL     1     -34.222  -2.450  -5.660  0.00  0.00    +0.000 OA
BRANCH  22  23
ATOM     23  C   UNL     1     -35.636  -2.949  -5.426  0.00  0.00    +0.000 C 
ATOM     24  C   UNL     1     -35.619  -3.791  -6.846  0.00  0.00    +0.000 C 
BRANCH  23  25
ATOM     25  C   UNL     1     -36.344  -1.658  -6.154  0.00  0.00    +0.000 C 
BRANCH  25  26
ATOM     26  O   UNL     1     -37.331  -2.043  -6.936  0.00  0.00    +0.000 OA
BRANCH  26  27
ATOM     27  C   UNL     1     -38.291  -0.913  -7.242  0.00  0.00    +0.000 C 
ATOM     28  C   UNL     1     -37.136   0.264  -7.321  0.00  0.00    +0.000 C 
BRANCH  27  29
ATOM     29  C   UNL     1     -38.171  -1.203  -8.864  0.00  0.00    +0.000 C 
BRANCH  29  31
ATOM     30  C   UNL     1     -40.123  -1.183  -8.764  0.00  0.00    +0.000 C 
ATOM     31  O   UNL     1     -39.534  -1.343  -9.173  0.00  0.00    +0.000 OA
ENDBRANCH  29  31
ENDBRANCH  27  29
ENDBRANCH  26  27
ENDBRANCH  25  26
ENDBRANCH  23  25
ENDBRANCH  22  23
ENDBRANCH  21  22
ENDBRANCH  19  21
ENDBRANCH  18  19
ENDBRANCH   1  18
TORSDOF 12
ENDMDL
MODEL 7
REMARK VINA RESULT:      -6.2      2.501      3.514
REMARK  Name = 
REMARK  12 active torsions:
REMARK  status: ('A' for Active; 'I' for Inactive)
REMARK    1  A    between atoms: O_2  and  C_3
REMARK    2  A    between atoms: C_3  and  C_4
REMARK    3  A    between atoms: C_4  and  O_6
REMARK    4  A    between atoms: O_6  and  C_7
REMARK    5  A    between atoms: C_7  and  C_8
REMARK    6  A    between atoms: C_8  and  O_10
REMARK    7  A    between atoms: O_10  and  C_11
REMARK    8  A    between atoms: C_11  and  C_12
REMARK    9  A    between atoms: C_12  and  O_14
REMARK   10  A    between atoms: O_14  and  C_15
REMARK   11  A    between atoms: C_21  and  C_22
REMARK   12  A    between atoms: C_23  and  C_24
REMARK                            x       y       z     vdW  Elec       q    Type
REMARK                         _______ _______ _______ _____ _____    ______ ____
ROOT
ATOM      1  C   UNL     1     -20.437  -5.458   8.892  0.00  0.00    +0.000 A 
ATOM      2  C   UNL     1     -21.812  -5.375   9.107  0.00  0.00    +0.000 A 
ATOM      3  C   UNL     1     -22.279  -4.330   9.896  0.00  0.00    +0.000 A 
ATOM      4  O   UNL     1     -23.614  -3.979   9.662  0.00  0.00    +0.000 OA
ATOM      5  C   UNL     1     -21.353  -3.386  10.328  0.00  0.00    +0.000 A 
ATOM      6  C   UNL     1     -20.137  -3.266   9.661  0.00  0.00    +0.000 A 
ATOM      7  C   UNL     1     -19.636  -4.316   8.897  0.00  0.00    +0.000 A 
ENDROOT
BRANCH   7   8
ATOM      8  C   UNL     1     -18.942  -4.063   7.616  0.00  0.00    +0.000 C 
ATOM      9  C   UNL     1     -17.837  -3.365   7.528  0.00  0.00    +0.000 C 
BRANCH   9  10
ATOM     10  C   UNL     1     -17.709  -2.065   6.856  0.00  0.00    +0.000 A 
ATOM     11  C   UNL     1     -16.466  -1.512   6.575  0.00  0.00    +0.000 A 
ATOM     12  C   UNL     1     -16.387  -0.294   5.909  0.00  0.00    +0.000 A 
ATOM     13  O   UNL     1     -15.385  -0.025   4.972  0.00  0.00    +0.000 OA
ATOM     14  C   UNL     1     -17.524   0.497   5.798  0.00  0.00    +0.000 A 
ATOM     15  C   UNL     1     -18.628   0.136   6.533  0.00  0.00    +0.000 A 
ATOM     16  O   UNL     1     -19.778   0.912   6.472  0.00  0.00    +0.000 OA
ATOM     17  C   UNL     1     -18.791  -1.195   6.800  0.00  0.00    +0.000 A 
ENDBRANCH   9  10
ENDBRANCH   7   8
BRANCH   1  18
ATOM     18  O   UNL     1     -19.799  -6.634   8.591  0.00  0.00    +0.000 OA
BRANCH  18  19
ATOM     19  C   UNL     1     -19.217  -7.459   9.750  0.00  0.00    +0.000 C 
ATOM     20  C   UNL     1     -20.582  -8.370   9.890  0.00  0.00    +0.000 C 
BRANCH  19  21
ATOM     21  C   UNL     1     -18.500  -8.551   8.749  0.00  0.00    +0.000 C 
BRANCH  21  22
ATOM     22  O   UNL     1     -19.412  -9.575   8.585  0.00  0.00    +0.000 OA
BRANCH  22  23
ATOM     23  C   UNL     1     -18.722 -10.395   7.510  0.00  0.00    +0.000 C 
ATOM     24  C   UNL     1     -17.242 -10.112   8.183  0.00  0.00    +0.000 C 
BRANCH  23  25
ATOM     25  C   UNL     1     -18.543  -9.126   6.483  0.00  0.00    +0.000 C 
BRANCH  25  26
ATOM     26  O   UNL     1     -17.737  -9.436   5.489  0.00  0.00    +0.000 OA
BRANCH  26  27
ATOM     27  C   UNL     1     -17.829  -8.445   4.349  0.00  0.00    +0.000 C 
ATOM     28  C   UNL     1     -19.471  -8.519   4.201  0.00  0.00    +0.000 C 
BRANCH  27  29
ATOM     29  C   UNL     1     -17.934  -7.182   5.407  0.00  0.00    +0.000 C 
BRANCH  29  31
ATOM     30  C   UNL     1     -16.633  -5.788   4.976  0.00  0.00    +0.000 C 
ATOM     31  O   UNL     1     -16.747  -6.507   5.077  0.00  0.00    +0.000 OA
ENDBRANCH  29  31
ENDBRANCH  27  29
ENDBRANCH  26  27
ENDBRANCH  25  26
ENDBRANCH  23  25
ENDBRANCH  22  23
ENDBRANCH  21  22
ENDBRANCH  19  21
ENDBRANCH  18  19
ENDBRANCH   1  18
TORSDOF 12
ENDMDL
MODEL 8
REMARK VINA RESULT:      -6.2     20.027     21.393
REMARK  Name = 
REMARK  12 active torsions:
REMARK  status: ('A' for Active; 'I' for Inactive)
REMARK    1  A    between atoms: O_2  and  C_3
REMARK    2  A    between atoms: C_3  and  C_4
REMARK    3  A    between atoms: C_4  and  O_6
REMARK    4  A    between atoms: O_6  and  C_7
REMARK    5  A    between atoms: C_7  and  C_8
REMARK    6  A    between atoms: C_8  and  O_10
REMARK    7  A    between atoms: O_10  and  C_11
REMARK    8  A    between atoms: C_11  and  C_12
REMARK    9  A    between atoms: C_12  and  O_14
REMARK   10  A    between atoms: O_14  and  C_15
REMARK   11  A    between atoms: C_21  and  C_22
REMARK   12  A    between atoms: C_23  and  C_24
REMARK                            x       y       z     vdW  Elec       q    Type
REMARK                         _______ _______ _______ _____ _____    ______ ____
ROOT
ATOM      1  C   UNL     1     -31.391  -4.729  -4.068  0.00  0.00    +0.000 A 
ATOM      2  C   UNL     1     -30.016  -4.701  -3.835  0.00  0.00    +0.000 A 
ATOM      3  C   UNL     1     -29.180  -4.530  -4.933  0.00  0.00    +0.000 A 
ATOM      4  O   UNL     1     -27.923  -3.996  -4.627  0.00  0.00    +0.000 OA
ATOM      5  C   UNL     1     -29.779  -4.298  -6.168  0.00  0.00    +0.000 A 
ATOM      6  C   UNL     1     -31.094  -3.843  -6.216  0.00  0.00    +0.000 A 
ATOM      7  C   UNL     1     -31.955  -4.038  -5.140  0.00  0.00    +0.000 A 
ENDROOT
BRANCH   7   8
ATOM      8  C   UNL     1     -32.924  -2.995  -4.740  0.00  0.00    +0.000 C 
ATOM      9  C   UNL     1     -34.206  -3.227  -4.601  0.00  0.00    +0.000 C 
BRANCH   9  10
ATOM     10  C   UNL     1     -35.263  -2.659  -5.448  0.00  0.00    +0.000 A 
ATOM     11  C   UNL     1     -36.110  -1.660  -4.980  0.00  0.00    +0.000 A 
ATOM     12  C   UNL     1     -37.078  -1.127  -5.823  0.00  0.00    +0.000 A 
ATOM     13  O   UNL     1     -37.423   0.228  -5.792  0.00  0.00    +0.000 OA
ATOM     14  C   UNL     1     -37.393  -1.786  -7.004  0.00  0.00    +0.000 A 
ATOM     15  C   UNL     1     -36.881  -3.049  -7.186  0.00  0.00    +0.000 A 
ATOM     16  O   UNL     1     -37.190  -3.756  -8.341  0.00  0.00    +0.000 OA
ATOM     17  C   UNL     1     -35.682  -3.328  -6.592  0.00  0.00    +0.000 A 
ENDBRANCH   9  10
ENDBRANCH   7   8
BRANCH   1  18
ATOM     18  O   UNL     1     -32.275  -5.362  -3.232  0.00  0.00    +0.000 OA
BRANCH  18  19
ATOM     19  C   UNL     1     -32.264  -6.899  -3.196  0.00  0.00    +0.000 C 
ATOM     20  C   UNL     1     -32.684  -6.942  -1.604  0.00  0.00    +0.000 C 
BRANCH  19  21
ATOM     21  C   UNL     1     -33.828  -7.025  -3.691  0.00  0.00    +0.000 C 
BRANCH  21  22
ATOM     22  O   UNL     1     -33.785  -7.588  -4.951  0.00  0.00    +0.000 OA
BRANCH  22  23
ATOM     23  C   UNL     1     -34.634  -6.598  -5.729  0.00  0.00    +0.000 C 
ATOM     24  C   UNL     1     -35.744  -6.525  -4.509  0.00  0.00    +0.000 C 
BRANCH  23  25
ATOM     25  C   UNL     1     -35.500  -7.760  -6.502  0.00  0.00    +0.000 C 
BRANCH  25  26
ATOM     26  O   UNL     1     -36.369  -7.223  -7.333  0.00  0.00    +0.000 OA
BRANCH  26  27
ATOM     27  C   UNL     1     -36.687  -8.138  -8.496  0.00  0.00    +0.000 C 
ATOM     28  C   UNL     1     -38.065  -7.349  -8.950  0.00  0.00    +0.000 C 
BRANCH  27  29
ATOM     29  C   UNL     1     -35.770  -7.219  -9.517  0.00  0.00    +0.000 C 
BRANCH  29  31
ATOM     30  C   UNL     1     -34.727  -8.215 -10.836  0.00  0.00    +0.000 C 
ATOM     31  O   UNL     1     -35.295  -8.228 -10.370  0.00  0.00    +0.000 OA
ENDBRANCH  29  31
ENDBRANCH  27  29
ENDBRANCH  26  27
ENDBRANCH  25  26
ENDBRANCH  23  25
ENDBRANCH  22  23
ENDBRANCH  21  22
ENDBRANCH  19  21
ENDBRANCH  18  19
ENDBRANCH   1  18
TORSDOF 12
ENDMDL
MODEL 9
REMARK VINA RESULT:      -6.1     20.023     22.293
REMARK  Name = 
REMARK  12 active torsions:
REMARK  status: ('A' for Active; 'I' for Inactive)
REMARK    1  A    between atoms: O_2  and  C_3
REMARK    2  A    between atoms: C_3  and  C_4
REMARK    3  A    between atoms: C_4  and  O_6
REMARK    4  A    between atoms: O_6  and  C_7
REMARK    5  A    between atoms: C_7  and  C_8
REMARK    6  A    between atoms: C_8  and  O_10
REMARK    7  A    between atoms: O_10  and  C_11
REMARK    8  A    between atoms: C_11  and  C_12
REMARK    9  A    between atoms: C_12  and  O_14
REMARK   10  A    between atoms: O_14  and  C_15
REMARK   11  A    between atoms: C_21  and  C_22
REMARK   12  A    between atoms: C_23  and  C_24
REMARK                            x       y       z     vdW  Elec       q    Type
REMARK                         _______ _______ _______ _____ _____    ______ ____
ROOT
ATOM      1  C   UNL     1     -32.035  -4.199  -4.026  0.00  0.00    +0.000 A 
ATOM      2  C   UNL     1     -31.368  -4.205  -5.251  0.00  0.00    +0.000 A 
ATOM      3  C   UNL     1     -29.981  -4.307  -5.228  0.00  0.00    +0.000 A 
ATOM      4  O   UNL     1     -29.418  -4.824  -6.401  0.00  0.00    +0.000 OA
ATOM      5  C   UNL     1     -29.370  -4.497  -3.992  0.00  0.00    +0.000 A 
ATOM      6  C   UNL     1     -30.121  -4.981  -2.925  0.00  0.00    +0.000 A 
ATOM      7  C   UNL     1     -31.507  -4.855  -2.915  0.00  0.00    +0.000 A 
ENDROOT
BRANCH   7   8
ATOM      8  C   UNL     1     -32.368  -5.938  -2.391  0.00  0.00    +0.000 C 
ATOM      9  C   UNL     1     -32.502  -7.096  -2.988  0.00  0.00    +0.000 C 
BRANCH   9  10
ATOM     10  C   UNL     1     -33.740  -7.590  -3.604  0.00  0.00    +0.000 A 
ATOM     11  C   UNL     1     -33.962  -7.487  -4.972  0.00  0.00    +0.000 A 
ATOM     12  C   UNL     1     -35.134  -7.996  -5.520  0.00  0.00    +0.000 A 
ATOM     13  O   UNL     1     -35.159  -8.612  -6.775  0.00  0.00    +0.000 OA
ATOM     14  C   UNL     1     -36.193  -8.325  -4.683  0.00  0.00    +0.000 A 
ATOM     15  C   UNL     1     -36.110  -7.936  -3.367  0.00  0.00    +0.000 A 
ATOM     16  O   UNL     1     -37.157  -8.222  -2.500  0.00  0.00    +0.000 OA
ATOM     17  C   UNL     1     -34.860  -7.845  -2.821  0.00  0.00    +0.000 A 
ENDBRANCH   9  10
ENDBRANCH   7   8
BRANCH   1  18
ATOM     18  O   UNL     1     -33.269  -3.626  -3.854  0.00  0.00    +0.000 OA
BRANCH  18  19
ATOM     19  C   UNL     1     -34.340  -3.876  -4.928  0.00  0.00    +0.000 C 
ATOM     20  C   UNL     1     -35.465  -4.326  -3.812  0.00  0.00    +0.000 C 
BRANCH  19  21
ATOM     21  C   UNL     1     -34.853  -2.313  -4.926  0.00  0.00    +0.000 C 
BRANCH  21  22
ATOM     22  O   UNL     1     -36.088  -2.317  -4.307  0.00  0.00    +0.000 OA
BRANCH  22  23
ATOM     23  C   UNL     1     -36.678  -1.027  -4.848  0.00  0.00    +0.000 C 
ATOM     24  C   UNL     1     -38.211  -1.627  -4.727  0.00  0.00    +0.000 C 
BRANCH  23  25
ATOM     25  C   UNL     1     -36.575  -1.493  -6.419  0.00  0.00    +0.000 C 
BRANCH  25  26
ATOM     26  O   UNL     1     -37.627  -2.204  -6.767  0.00  0.00    +0.000 OA
BRANCH  26  27
ATOM     27  C   UNL     1     -37.374  -3.028  -8.012  0.00  0.00    +0.000 C 
ATOM     28  C   UNL     1     -37.219  -4.470  -7.223  0.00  0.00    +0.000 C 
BRANCH  27  29
ATOM     29  C   UNL     1     -38.994  -3.267  -8.227  0.00  0.00    +0.000 C 
BRANCH  29  31
ATOM     30  C   UNL     1     -39.836  -2.163  -9.603  0.00  0.00    +0.000 C 
ATOM     31  O   UNL     1     -39.205  -2.422  -9.329  0.00  0.00    +0.000 OA
ENDBRANCH  29  31
ENDBRANCH  27  29
ENDBRANCH  26  27
ENDBRANCH  25  26
ENDBRANCH  23  25
ENDBRANCH  22  23
ENDBRANCH  21  22
ENDBRANCH  19  21
ENDBRANCH  18  19
ENDBRANCH   1  18
TORSDOF 12
ENDMDL
MODEL 10
REMARK VINA RESULT:      -6.0     21.724     23.470
REMARK  Name = 
REMARK  12 active torsions:
REMARK  status: ('A' for Active; 'I' for Inactive)
REMARK    1  A    between atoms: O_2  and  C_3
REMARK    2  A    between atoms: C_3  and  C_4
REMARK    3  A    between atoms: C_4  and  O_6
REMARK    4  A    between atoms: O_6  and  C_7
REMARK    5  A    between atoms: C_7  and  C_8
REMARK    6  A    between atoms: C_8  and  O_10
REMARK    7  A    between atoms: O_10  and  C_11
REMARK    8  A    between atoms: C_11  and  C_12
REMARK    9  A    between atoms: C_12  and  O_14
REMARK   10  A    between atoms: O_14  and  C_15
REMARK   11  A    between atoms: C_21  and  C_22
REMARK   12  A    between atoms: C_23  and  C_24
REMARK                            x       y       z     vdW  Elec       q    Type
REMARK                         _______ _______ _______ _____ _____    ______ ____
ROOT
ATOM      1  C   UNL     1     -35.385  -4.287  -5.848  0.00  0.00    +0.000 A 
ATOM      2  C   UNL     1     -35.912  -5.456  -5.299  0.00  0.00    +0.000 A 
ATOM      3  C   UNL     1     -36.174  -6.513  -6.163  0.00  0.00    +0.000 A 
ATOM      4  O   UNL     1     -36.189  -7.772  -5.551  0.00  0.00    +0.000 OA
ATOM      5  C   UNL     1     -35.796  -6.364  -7.494  0.00  0.00    +0.000 A 
ATOM      6  C   UNL     1     -34.842  -5.408  -7.832  0.00  0.00    +0.000 A 
ATOM      7  C   UNL     1     -34.593  -4.324  -6.995  0.00  0.00    +0.000 A 
ENDROOT
BRANCH   7   8
ATOM      8  C   UNL     1     -33.219  -3.814  -6.795  0.00  0.00    +0.000 C 
ATOM      9  C   UNL     1     -32.150  -4.534  -7.031  0.00  0.00    +0.000 C 
BRANCH   9  10
ATOM     10  C   UNL     1     -31.198  -4.993  -6.010  0.00  0.00    +0.000 A 
ATOM     11  C   UNL     1     -31.592  -5.837  -4.978  0.00  0.00    +0.000 A 
ATOM     12  C   UNL     1     -30.654  -6.274  -4.050  0.00  0.00    +0.000 A 
ATOM     13  O   UNL     1     -30.690  -7.564  -3.511  0.00  0.00    +0.000 OA
ATOM     14  C   UNL     1     -29.420  -5.641  -3.977  0.00  0.00    +0.000 A 
ATOM     15  C   UNL     1     -29.258  -4.473  -4.684  0.00  0.00    +0.000 A 
ATOM     16  O   UNL     1     -28.049  -3.793  -4.620  0.00  0.00    +0.000 OA
ATOM     17  C   UNL     1     -29.988  -4.333  -5.832  0.00  0.00    +0.000 A 
ENDBRANCH   9  10
ENDBRANCH   7   8
BRANCH   1  18
ATOM     18  O   UNL     1     -35.539  -3.055  -5.266  0.00  0.00    +0.000 OA
BRANCH  18  19
ATOM     19  C   UNL     1     -36.968  -2.565  -4.977  0.00  0.00    +0.000 C 
ATOM     20  C   UNL     1     -36.433  -1.171  -4.284  0.00  0.00    +0.000 C 
BRANCH  19  21
ATOM     21  C   UNL     1     -37.133  -1.856  -6.454  0.00  0.00    +0.000 C 
BRANCH  21  22
ATOM     22  O   UNL     1     -38.463  -1.501  -6.559  0.00  0.00    +0.000 OA
BRANCH  22  23
ATOM     23  C   UNL     1     -38.416  -0.590  -7.772  0.00  0.00    +0.000 C 
ATOM     24  C   UNL     1     -40.023  -0.827  -8.067  0.00  0.00    +0.000 C 
BRANCH  23  25
ATOM     25  C   UNL     1     -38.007  -1.793  -8.813  0.00  0.00    +0.000 C 
BRANCH  25  26
ATOM     26  O   UNL     1     -38.454  -1.537 -10.025  0.00  0.00    +0.000 OA
BRANCH  26  27
ATOM     27  C   UNL     1     -38.260  -2.708 -10.965  0.00  0.00    +0.000 C 
ATOM     28  C   UNL     1     -38.358  -3.871  -9.798  0.00  0.00    +0.000 C 
BRANCH  27  29
ATOM     29  C   UNL     1     -39.884  -2.793 -11.252  0.00  0.00    +0.000 C 
BRANCH  29  31
ATOM     30  C   UNL     1     -39.530  -2.830 -13.174  0.00  0.00    +0.000 C 
ATOM     31  O   UNL     1     -39.890  -2.500 -12.625  0.00  0.00    +0.000 OA
ENDBRANCH  29  31
ENDBRANCH  27  29
ENDBRANCH  26  27
ENDBRANCH  25  26
ENDBRANCH  23  25
ENDBRANCH  22  23
ENDBRANCH  21  22
ENDBRANCH  19  21
ENDBRANCH  18  19
ENDBRANCH   1  18
TORSDOF 12
ENDMDL
