MODEL 1
REMARK VINA RESULT:      -6.3      0.000      0.000
REMARK  Name = 
REMARK  12 active torsions:
REMARK  status: ('A' for Active; 'I' for Inactive)
REMARK    1  A    between atoms: O_2  and  C_3
REMARK    2  A    between atoms: C_3  and  C_4
REMARK    3  A    between atoms: C_4  and  O_6
REMARK    4  A    between atoms: O_6  and  C_7
REMARK    5  A    between atoms: C_7  and  C_8
REMARK    6  A    between atoms: C_8  and  O_10
REMARK    7  A    between atoms: O_10  and  C_11
REMARK    8  A    between atoms: C_11  and  C_12
REMARK    9  A    between atoms: C_12  and  O_14
REMARK   10  A    between atoms: O_14  and  C_15
REMARK   11  A    between atoms: C_21  and  C_22
REMARK   12  A    between atoms: C_23  and  C_24
REMARK                            x       y       z     vdW  Elec       q    Type
REMARK                         _______ _______ _______ _____ _____    ______ ____
ROOT
ATOM      1  C   UNL     1     -30.788  -5.269  -5.074  0.00  0.00    +0.000 A 
ATOM      2  C   UNL     1     -29.791  -4.770  -4.292  0.00  0.00    +0.000 A 
ATOM      3  C   UNL     1     -28.652  -4.276  -4.869  0.00  0.00    +0.000 A 
ATOM      4  O   UNL     1     -27.739  -3.693  -4.021  0.00  0.00    +0.000 OA
ATOM      5  C   UNL     1     -28.617  -4.222  -6.235  0.00  0.00    +0.000 A 
ATOM      6  C   UNL     1     -29.826  -4.245  -6.924  0.00  0.00    +0.000 A 
ATOM      7  C   UNL     1     -30.997  -4.691  -6.324  0.00  0.00    +0.000 A 
ENDROOT
BRANCH   7   8
ATOM      8  C   UNL     1     -32.321  -4.458  -6.839  0.00  0.00    +0.000 C 
ATOM      9  C   UNL     1     -33.025  -3.335  -6.690  0.00  0.00    +0.000 C 
BRANCH   9  10
ATOM     10  C   UNL     1     -34.409  -3.343  -6.198  0.00  0.00    +0.000 A 
ATOM     11  C   UNL     1     -35.449  -3.952  -6.893  0.00  0.00    +0.000 A 
ATOM     12  C   UNL     1     -36.615  -3.260  -7.211  0.00  0.00    +0.000 A 
ATOM     13  O   UNL     1     -37.563  -3.892  -8.014  0.00  0.00    +0.000 OA
ATOM     14  C   UNL     1     -36.926  -2.118  -6.482  0.00  0.00    +0.000 A 
ATOM     15  C   UNL     1     -36.127  -1.841  -5.384  0.00  0.00    +0.000 A 
ATOM     16  O   UNL     1     -36.542  -0.941  -4.412  0.00  0.00    +0.000 OA
ATOM     17  C   UNL     1     -34.874  -2.438  -5.250  0.00  0.00    +0.000 A 
ENDBRANCH   9  10
ENDBRANCH   7   8
BRANCH   1  18
ATOM     18  O   UNL     1     -31.821  -5.991  -4.517  0.00  0.00    +0.000 OA
BRANCH  18  19
ATOM     19  C   UNL     1     -32.132  -5.426  -3.090  0.00  0.00    +0.000 C 
ATOM     20  C   UNL     1     -32.022  -6.956  -2.413  0.00  0.00    +0.000 C 
BRANCH  19  21
ATOM     21  C   UNL     1     -33.779  -5.598  -3.342  0.00  0.00    +0.000 C 
BRANCH  21  22
ATOM     22  O   UNL     1     -33.711  -6.949  -3.743  0.00  0.00    +0.000 OA
BRANCH  22  23
ATOM     23  C   UNL     1     -35.125  -6.990  -4.368  0.00  0.00    +0.000 C 
ATOM     24  C   UNL     1     -35.540  -8.339  -3.453  0.00  0.00    +0.000 C 
BRANCH  23  25
ATOM     25  C   UNL     1     -34.589  -7.970  -5.620  0.00  0.00    +0.000 C 
BRANCH  25  26
ATOM     26  O   UNL     1     -35.349  -7.594  -6.655  0.00  0.00    +0.000 OA
BRANCH  26  27
ATOM     27  C   UNL     1     -35.786  -8.853  -7.438  0.00  0.00    +0.000 C 
ATOM     28  C   UNL     1     -37.432  -8.629  -7.155  0.00  0.00    +0.000 C 
BRANCH  27  29
ATOM     29  C   UNL     1     -35.860  -7.997  -8.884  0.00  0.00    +0.000 C 
BRANCH  29  31
ATOM     30  C   UNL     1     -34.855  -8.296 -10.795  0.00  0.00    +0.000 C 
ATOM     31  O   UNL     1     -35.223  -8.910  -9.741  0.00  0.00    +0.000 OA
ENDBRANCH  29  31
ENDBRANCH  27  29
ENDBRANCH  26  27
ENDBRANCH  25  26
ENDBRANCH  23  25
ENDBRANCH  22  23
ENDBRANCH  21  22
ENDBRANCH  19  21
ENDBRANCH  18  19
ENDBRANCH   1  18
TORSDOF 12
ENDMDL
MODEL 2
REMARK VINA RESULT:      -6.1      1.710      3.056
REMARK  Name = 
REMARK  12 active torsions:
REMARK  status: ('A' for Active; 'I' for Inactive)
REMARK    1  A    between atoms: O_2  and  C_3
REMARK    2  A    between atoms: C_3  and  C_4
REMARK    3  A    between atoms: C_4  and  O_6
REMARK    4  A    between atoms: O_6  and  C_7
REMARK    5  A    between atoms: C_7  and  C_8
REMARK    6  A    between atoms: C_8  and  O_10
REMARK    7  A    between atoms: O_10  and  C_11
REMARK    8  A    between atoms: C_11  and  C_12
REMARK    9  A    between atoms: C_12  and  O_14
REMARK   10  A    between atoms: O_14  and  C_15
REMARK   11  A    between atoms: C_21  and  C_22
REMARK   12  A    between atoms: C_23  and  C_24
REMARK                            x       y       z     vdW  Elec       q    Type
REMARK                         _______ _______ _______ _____ _____    ______ ____
ROOT
ATOM      1  C   UNL     1     -30.800  -5.236  -5.076  0.00  0.00    +0.000 A 
ATOM      2  C   UNL     1     -29.793  -4.729  -4.311  0.00  0.00    +0.000 A 
ATOM      3  C   UNL     1     -28.659  -4.248  -4.906  0.00  0.00    +0.000 A 
ATOM      4  O   UNL     1     -27.736  -3.655  -4.077  0.00  0.00    +0.000 OA
ATOM      5  C   UNL     1     -28.637  -4.214  -6.274  0.00  0.00    +0.000 A 
ATOM      6  C   UNL     1     -29.853  -4.243  -6.951  0.00  0.00    +0.000 A 
ATOM      7  C   UNL     1     -31.019  -4.676  -6.332  0.00  0.00    +0.000 A 
ENDROOT
BRANCH   7   8
ATOM      8  C   UNL     1     -32.348  -4.446  -6.839  0.00  0.00    +0.000 C 
ATOM      9  C   UNL     1     -33.049  -3.322  -6.692  0.00  0.00    +0.000 C 
BRANCH   9  10
ATOM     10  C   UNL     1     -34.429  -3.324  -6.189  0.00  0.00    +0.000 A 
ATOM     11  C   UNL     1     -35.473  -3.952  -6.862  0.00  0.00    +0.000 A 
ATOM     12  C   UNL     1     -36.643  -3.271  -7.184  0.00  0.00    +0.000 A 
ATOM     13  O   UNL     1     -37.596  -3.923  -7.966  0.00  0.00    +0.000 OA
ATOM     14  C   UNL     1     -36.953  -2.114  -6.476  0.00  0.00    +0.000 A 
ATOM     15  C   UNL     1     -36.146  -1.812  -5.392  0.00  0.00    +0.000 A 
ATOM     16  O   UNL     1     -36.556  -0.894  -4.435  0.00  0.00    +0.000 OA
ATOM     17  C   UNL     1     -34.889  -2.401  -5.256  0.00  0.00    +0.000 A 
ENDBRANCH   9  10
ENDBRANCH   7   8
BRANCH   1  18
ATOM     18  O   UNL     1     -31.829  -5.947  -4.499  0.00  0.00    +0.000 OA
BRANCH  18  19
ATOM     19  C   UNL     1     -32.180  -5.308  -3.112  0.00  0.00    +0.000 C 
ATOM     20  C   UNL     1     -31.817  -6.737  -2.314  0.00  0.00    +0.000 C 
BRANCH  19  21
ATOM     21  C   UNL     1     -33.789  -5.746  -3.278  0.00  0.00    +0.000 C 
BRANCH  21  22
ATOM     22  O   UNL     1     -33.585  -6.570  -4.404  0.00  0.00    +0.000 OA
BRANCH  22  23
ATOM     23  C   UNL     1     -34.783  -7.508  -4.121  0.00  0.00    +0.000 C 
ATOM     24  C   UNL     1     -35.096  -7.681  -5.764  0.00  0.00    +0.000 C 
BRANCH  23  25
ATOM     25  C   UNL     1     -35.836  -6.204  -4.029  0.00  0.00    +0.000 C 
BRANCH  25  26
ATOM     26  O   UNL     1     -36.816  -6.537  -4.877  0.00  0.00    +0.000 OA
BRANCH  26  27
ATOM     27  C   UNL     1     -38.156  -5.993  -4.331  0.00  0.00    +0.000 C 
ATOM     28  C   UNL     1     -38.129  -6.931  -2.933  0.00  0.00    +0.000 C 
BRANCH  27  29
ATOM     29  C   UNL     1     -37.385  -4.713  -3.557  0.00  0.00    +0.000 C 
BRANCH  29  31
ATOM     30  C   UNL     1     -38.506  -3.174  -2.498  0.00  0.00    +0.000 C 
ATOM     31  O   UNL     1     -38.395  -3.739  -3.634  0.00  0.00    +0.000 OA
ENDBRANCH  29  31
ENDBRANCH  27  29
ENDBRANCH  26  27
ENDBRANCH  25  26
ENDBRANCH  23  25
ENDBRANCH  22  23
ENDBRANCH  21  22
ENDBRANCH  19  21
ENDBRANCH  18  19
ENDBRANCH   1  18
TORSDOF 12
ENDMDL
MODEL 3
REMARK VINA RESULT:      -5.9     13.833     16.778
REMARK  Name = 
REMARK  12 active torsions:
REMARK  status: ('A' for Active; 'I' for Inactive)
REMARK    1  A    between atoms: O_2  and  C_3
REMARK    2  A    between atoms: C_3  and  C_4
REMARK    3  A    between atoms: C_4  and  O_6
REMARK    4  A    between atoms: O_6  and  C_7
REMARK    5  A    between atoms: C_7  and  C_8
REMARK    6  A    between atoms: C_8  and  O_10
REMARK    7  A    between atoms: O_10  and  C_11
REMARK    8  A    between atoms: C_11  and  C_12
REMARK    9  A    between atoms: C_12  and  O_14
REMARK   10  A    between atoms: O_14  and  C_15
REMARK   11  A    between atoms: C_21  and  C_22
REMARK   12  A    between atoms: C_23  and  C_24
REMARK                            x       y       z     vdW  Elec       q    Type
REMARK                         _______ _______ _______ _____ _____    ______ ____
ROOT
ATOM      1  C   UNL     1     -27.013   8.199  -5.098  0.00  0.00    +0.000 A 
ATOM      2  C   UNL     1     -28.347   8.465  -5.174  0.00  0.00    +0.000 A 
ATOM      3  C   UNL     1     -29.242   7.669  -4.511  0.00  0.00    +0.000 A 
ATOM      4  O   UNL     1     -30.558   8.064  -4.548  0.00  0.00    +0.000 OA
ATOM      5  C   UNL     1     -28.729   6.683  -3.713  0.00  0.00    +0.000 A 
ATOM      6  C   UNL     1     -27.412   6.807  -3.281  0.00  0.00    +0.000 A 
ATOM      7  C   UNL     1     -26.515   7.659  -3.915  0.00  0.00    +0.000 A 
ENDROOT
BRANCH   7   8
ATOM      8  C   UNL     1     -25.256   8.083  -3.359  0.00  0.00    +0.000 C 
ATOM      9  C   UNL     1     -24.116   7.394  -3.410  0.00  0.00    +0.000 C 
BRANCH   9  10
ATOM     10  C   UNL     1     -23.306   7.139  -2.211  0.00  0.00    +0.000 A 
ATOM     11  C   UNL     1     -23.495   6.023  -1.400  0.00  0.00    +0.000 A 
ATOM     12  C   UNL     1     -23.696   6.147  -0.028  0.00  0.00    +0.000 A 
ATOM     13  O   UNL     1     -24.001   5.000   0.703  0.00  0.00    +0.000 OA
ATOM     14  C   UNL     1     -23.287   7.320   0.597  0.00  0.00    +0.000 A 
ATOM     15  C   UNL     1     -22.566   8.219  -0.173  0.00  0.00    +0.000 A 
ATOM     16  O   UNL     1     -21.835   9.238   0.423  0.00  0.00    +0.000 OA
ATOM     17  C   UNL     1     -22.586   8.137  -1.565  0.00  0.00    +0.000 A 
ENDBRANCH   9  10
ENDBRANCH   7   8
BRANCH   1  18
ATOM     18  O   UNL     1     -26.125   8.823  -5.946  0.00  0.00    +0.000 OA
BRANCH  18  19
ATOM     19  C   UNL     1     -25.779   7.857  -7.130  0.00  0.00    +0.000 C 
ATOM     20  C   UNL     1     -24.155   8.263  -7.043  0.00  0.00    +0.000 C 
BRANCH  19  21
ATOM     21  C   UNL     1     -26.077   9.066  -8.250  0.00  0.00    +0.000 C 
BRANCH  21  22
ATOM     22  O   UNL     1     -25.641   8.322  -9.366  0.00  0.00    +0.000 OA
BRANCH  22  23
ATOM     23  C   UNL     1     -26.859   7.369  -9.395  0.00  0.00    +0.000 C 
ATOM     24  C   UNL     1     -26.284   6.602 -10.778  0.00  0.00    +0.000 C 
BRANCH  23  25
ATOM     25  C   UNL     1     -27.737   8.453 -10.328  0.00  0.00    +0.000 C 
BRANCH  25  26
ATOM     26  O   UNL     1     -28.207   7.695 -11.325  0.00  0.00    +0.000 OA
BRANCH  26  27
ATOM     27  C   UNL     1     -28.977   8.595 -12.319  0.00  0.00    +0.000 C 
ATOM     28  C   UNL     1     -30.378   8.666 -11.385  0.00  0.00    +0.000 C 
BRANCH  27  29
ATOM     29  C   UNL     1     -28.366   9.994 -11.612  0.00  0.00    +0.000 C 
BRANCH  29  31
ATOM     30  C   UNL     1     -28.294  12.061 -12.296  0.00  0.00    +0.000 C 
ATOM     31  O   UNL     1     -28.908  10.960 -12.476  0.00  0.00    +0.000 OA
ENDBRANCH  29  31
ENDBRANCH  27  29
ENDBRANCH  26  27
ENDBRANCH  25  26
ENDBRANCH  23  25
ENDBRANCH  22  23
ENDBRANCH  21  22
ENDBRANCH  19  21
ENDBRANCH  18  19
ENDBRANCH   1  18
TORSDOF 12
ENDMDL
MODEL 4
REMARK VINA RESULT:      -5.9      1.506      5.469
REMARK  Name = 
REMARK  12 active torsions:
REMARK  status: ('A' for Active; 'I' for Inactive)
REMARK    1  A    between atoms: O_2  and  C_3
REMARK    2  A    between atoms: C_3  and  C_4
REMARK    3  A    between atoms: C_4  and  O_6
REMARK    4  A    between atoms: O_6  and  C_7
REMARK    5  A    between atoms: C_7  and  C_8
REMARK    6  A    between atoms: C_8  and  O_10
REMARK    7  A    between atoms: O_10  and  C_11
REMARK    8  A    between atoms: C_11  and  C_12
REMARK    9  A    between atoms: C_12  and  O_14
REMARK   10  A    between atoms: O_14  and  C_15
REMARK   11  A    between atoms: C_21  and  C_22
REMARK   12  A    between atoms: C_23  and  C_24
REMARK                            x       y       z     vdW  Elec       q    Type
REMARK                         _______ _______ _______ _____ _____    ______ ____
ROOT
ATOM      1  C   UNL     1     -35.214  -4.278  -5.949  0.00  0.00    +0.000 A 
ATOM      2  C   UNL     1     -36.011  -4.213  -7.052  0.00  0.00    +0.000 A 
ATOM      3  C   UNL     1     -36.748  -3.085  -7.297  0.00  0.00    +0.000 A 
ATOM      4  O   UNL     1     -37.443  -3.053  -8.483  0.00  0.00    +0.000 OA
ATOM      5  C   UNL     1     -36.567  -2.025  -6.451  0.00  0.00    +0.000 A 
ATOM      6  C   UNL     1     -35.394  -1.975  -5.703  0.00  0.00    +0.000 A 
ATOM      7  C   UNL     1     -34.612  -3.105  -5.501  0.00  0.00    +0.000 A 
ENDROOT
BRANCH   7   8
ATOM      8  C   UNL     1     -33.253  -3.085  -5.023  0.00  0.00    +0.000 C 
ATOM      9  C   UNL     1     -32.164  -3.012  -5.788  0.00  0.00    +0.000 C 
BRANCH   9  10
ATOM     10  C   UNL     1     -31.042  -3.947  -5.638  0.00  0.00    +0.000 A 
ATOM     11  C   UNL     1     -31.218  -5.279  -5.274  0.00  0.00    +0.000 A 
ATOM     12  C   UNL     1     -30.534  -5.836  -4.197  0.00  0.00    +0.000 A 
ATOM     13  O   UNL     1     -30.849  -7.138  -3.813  0.00  0.00    +0.000 OA
ATOM     14  C   UNL     1     -29.374  -5.209  -3.754  0.00  0.00    +0.000 A 
ATOM     15  C   UNL     1     -28.901  -4.157  -4.523  0.00  0.00    +0.000 A 
ATOM     16  O   UNL     1     -27.602  -3.692  -4.368  0.00  0.00    +0.000 OA
ATOM     17  C   UNL     1     -29.731  -3.524  -5.447  0.00  0.00    +0.000 A 
ENDBRANCH   9  10
ENDBRANCH   7   8
BRANCH   1  18
ATOM     18  O   UNL     1     -34.665  -5.477  -5.551  0.00  0.00    +0.000 OA
BRANCH  18  19
ATOM     19  C   UNL     1     -35.627  -6.167  -4.525  0.00  0.00    +0.000 C 
ATOM     20  C   UNL     1     -34.343  -6.556  -3.519  0.00  0.00    +0.000 C 
BRANCH  19  21
ATOM     21  C   UNL     1     -35.503  -7.627  -5.336  0.00  0.00    +0.000 C 
BRANCH  21  22
ATOM     22  O   UNL     1     -36.754  -7.526  -5.980  0.00  0.00    +0.000 OA
BRANCH  22  23
ATOM     23  C   UNL     1     -36.548  -8.754  -6.899  0.00  0.00    +0.000 C 
ATOM     24  C   UNL     1     -35.010  -9.021  -6.274  0.00  0.00    +0.000 C 
BRANCH  23  25
ATOM     25  C   UNL     1     -35.916  -7.788  -8.118  0.00  0.00    +0.000 C 
BRANCH  25  26
ATOM     26  O   UNL     1     -35.490  -8.674  -9.025  0.00  0.00    +0.000 OA
BRANCH  26  27
ATOM     27  C   UNL     1     -36.464  -8.670 -10.225  0.00  0.00    +0.000 C 
ATOM     28  C   UNL     1     -36.767  -7.014 -10.153  0.00  0.00    +0.000 C 
BRANCH  27  29
ATOM     29  C   UNL     1     -35.205  -8.451 -11.318  0.00  0.00    +0.000 C 
BRANCH  29  31
ATOM     30  C   UNL     1     -35.201  -9.409 -13.276  0.00  0.00    +0.000 C 
ATOM     31  O   UNL     1     -35.895  -8.648 -12.526  0.00  0.00    +0.000 OA
ENDBRANCH  29  31
ENDBRANCH  27  29
ENDBRANCH  26  27
ENDBRANCH  25  26
ENDBRANCH  23  25
ENDBRANCH  22  23
ENDBRANCH  21  22
ENDBRANCH  19  21
ENDBRANCH  18  19
ENDBRANCH   1  18
TORSDOF 12
ENDMDL
MODEL 5
REMARK VINA RESULT:      -5.8     12.888     16.062
REMARK  Name = 
REMARK  12 active torsions:
REMARK  status: ('A' for Active; 'I' for Inactive)
REMARK    1  A    between atoms: O_2  and  C_3
REMARK    2  A    between atoms: C_3  and  C_4
REMARK    3  A    between atoms: C_4  and  O_6
REMARK    4  A    between atoms: O_6  and  C_7
REMARK    5  A    between atoms: C_7  and  C_8
REMARK    6  A    between atoms: C_8  and  O_10
REMARK    7  A    between atoms: O_10  and  C_11
REMARK    8  A    between atoms: C_11  and  C_12
REMARK    9  A    between atoms: C_12  and  O_14
REMARK   10  A    between atoms: O_14  and  C_15
REMARK   11  A    between atoms: C_21  and  C_22
REMARK   12  A    between atoms: C_23  and  C_24
REMARK                            x       y       z     vdW  Elec       q    Type
REMARK                         _______ _______ _______ _____ _____    ______ ____
ROOT
ATOM      1  C   UNL     1     -28.472   8.117 -10.405  0.00  0.00    +0.000 A 
ATOM      2  C   UNL     1     -29.490   7.214 -10.471  0.00  0.00    +0.000 A 
ATOM      3  C   UNL     1     -29.218   5.894 -10.705  0.00  0.00    +0.000 A 
ATOM      4  O   UNL     1     -30.286   5.029 -10.650  0.00  0.00    +0.000 OA
ATOM      5  C   UNL     1     -27.901   5.528 -10.767  0.00  0.00    +0.000 A 
ATOM      6  C   UNL     1     -26.959   6.369 -10.181  0.00  0.00    +0.000 A 
ATOM      7  C   UNL     1     -27.250   7.696  -9.888  0.00  0.00    +0.000 A 
ENDROOT
BRANCH   7   8
ATOM      8  C   UNL     1     -26.467   8.531  -9.014  0.00  0.00    +0.000 C 
ATOM      9  C   UNL     1     -25.418   8.131  -8.295  0.00  0.00    +0.000 C 
BRANCH   9  10
ATOM     10  C   UNL     1     -25.307   8.412  -6.857  0.00  0.00    +0.000 A 
ATOM     11  C   UNL     1     -26.393   8.813  -6.084  0.00  0.00    +0.000 A 
ATOM     12  C   UNL     1     -26.344   9.965  -5.304  0.00  0.00    +0.000 A 
ATOM     13  O   UNL     1     -27.506  10.375  -4.652  0.00  0.00    +0.000 OA
ATOM     14  C   UNL     1     -25.097  10.476  -4.957  0.00  0.00    +0.000 A 
ATOM     15  C   UNL     1     -23.993   9.708  -5.287  0.00  0.00    +0.000 A 
ATOM     16  O   UNL     1     -22.758   9.950  -4.703  0.00  0.00    +0.000 OA
ATOM     17  C   UNL     1     -24.094   8.693  -6.238  0.00  0.00    +0.000 A 
ENDBRANCH   9  10
ENDBRANCH   7   8
BRANCH   1  18
ATOM     18  O   UNL     1     -28.733   9.470 -10.421  0.00  0.00    +0.000 OA
BRANCH  18  19
ATOM     19  C   UNL     1     -28.975   9.928 -11.899  0.00  0.00    +0.000 C 
ATOM     20  C   UNL     1     -28.074  11.321 -11.660  0.00  0.00    +0.000 C 
BRANCH  19  21
ATOM     21  C   UNL     1     -30.393  10.706 -11.463  0.00  0.00    +0.000 C 
BRANCH  21  22
ATOM     22  O   UNL     1     -31.250   9.793 -12.112  0.00  0.00    +0.000 OA
BRANCH  22  23
ATOM     23  C   UNL     1     -32.563  10.424 -11.591  0.00  0.00    +0.000 C 
ATOM     24  C   UNL     1     -32.088  10.203  -9.992  0.00  0.00    +0.000 C 
BRANCH  23  25
ATOM     25  C   UNL     1     -33.331   8.932 -11.598  0.00  0.00    +0.000 C 
BRANCH  25  26
ATOM     26  O   UNL     1     -32.800   8.305 -10.542  0.00  0.00    +0.000 OA
BRANCH  26  27
ATOM     27  C   UNL     1     -33.384   6.875 -10.464  0.00  0.00    +0.000 C 
ATOM     28  C   UNL     1     -32.981   6.649  -8.844  0.00  0.00    +0.000 C 
BRANCH  27  29
ATOM     29  C   UNL     1     -34.909   7.460 -10.063  0.00  0.00    +0.000 C 
BRANCH  29  31
ATOM     30  C   UNL     1     -36.593   6.473  -9.095  0.00  0.00    +0.000 C 
ATOM     31  O   UNL     1     -35.582   6.248  -9.836  0.00  0.00    +0.000 OA
ENDBRANCH  29  31
ENDBRANCH  27  29
ENDBRANCH  26  27
ENDBRANCH  25  26
ENDBRANCH  23  25
ENDBRANCH  22  23
ENDBRANCH  21  22
ENDBRANCH  19  21
ENDBRANCH  18  19
ENDBRANCH   1  18
TORSDOF 12
ENDMDL
MODEL 6
REMARK VINA RESULT:      -5.8      2.122      2.824
REMARK  Name = 
REMARK  12 active torsions:
REMARK  status: ('A' for Active; 'I' for Inactive)
REMARK    1  A    between atoms: O_2  and  C_3
REMARK    2  A    between atoms: C_3  and  C_4
REMARK    3  A    between atoms: C_4  and  O_6
REMARK    4  A    between atoms: O_6  and  C_7
REMARK    5  A    between atoms: C_7  and  C_8
REMARK    6  A    between atoms: C_8  and  O_10
REMARK    7  A    between atoms: O_10  and  C_11
REMARK    8  A    between atoms: C_11  and  C_12
REMARK    9  A    between atoms: C_12  and  O_14
REMARK   10  A    between atoms: O_14  and  C_15
REMARK   11  A    between atoms: C_21  and  C_22
REMARK   12  A    between atoms: C_23  and  C_24
REMARK                            x       y       z     vdW  Elec       q    Type
REMARK                         _______ _______ _______ _____ _____    ______ ____
ROOT
ATOM      1  C   UNL     1     -31.158  -5.479  -5.049  0.00  0.00    +0.000 A 
ATOM      2  C   UNL     1     -30.167  -5.016  -4.238  0.00  0.00    +0.000 A 
ATOM      3  C   UNL     1     -29.012  -4.523  -4.783  0.00  0.00    +0.000 A 
ATOM      4  O   UNL     1     -28.105  -3.976  -3.905  0.00  0.00    +0.000 OA
ATOM      5  C   UNL     1     -28.954  -4.433  -6.147  0.00  0.00    +0.000 A 
ATOM      6  C   UNL     1     -30.152  -4.419  -6.855  0.00  0.00    +0.000 A 
ATOM      7  C   UNL     1     -31.339  -4.864  -6.285  0.00  0.00    +0.000 A 
ENDROOT
BRANCH   7   8
ATOM      8  C   UNL     1     -32.651  -4.598  -6.816  0.00  0.00    +0.000 C 
ATOM      9  C   UNL     1     -33.285  -3.427  -6.763  0.00  0.00    +0.000 C 
BRANCH   9  10
ATOM     10  C   UNL     1     -34.663  -3.308  -6.269  0.00  0.00    +0.000 A 
ATOM     11  C   UNL     1     -35.758  -3.801  -6.971  0.00  0.00    +0.000 A 
ATOM     12  C   UNL     1     -36.851  -2.994  -7.275  0.00  0.00    +0.000 A 
ATOM     13  O   UNL     1     -37.857  -3.517  -8.086  0.00  0.00    +0.000 OA
ATOM     14  C   UNL     1     -37.049  -1.839  -6.526  0.00  0.00    +0.000 A 
ATOM     15  C   UNL     1     -36.226  -1.660  -5.426  0.00  0.00    +0.000 A 
ATOM     16  O   UNL     1     -36.551  -0.740  -4.438  0.00  0.00    +0.000 OA
ATOM     17  C   UNL     1     -35.037  -2.378  -5.305  0.00  0.00    +0.000 A 
ENDBRANCH   9  10
ENDBRANCH   7   8
BRANCH   1  18
ATOM     18  O   UNL     1     -32.210  -6.201  -4.528  0.00  0.00    +0.000 OA
BRANCH  18  19
ATOM     19  C   UNL     1     -32.604  -5.603  -3.136  0.00  0.00    +0.000 C 
ATOM     20  C   UNL     1     -32.654  -7.130  -2.446  0.00  0.00    +0.000 C 
BRANCH  19  21
ATOM     21  C   UNL     1     -34.231  -5.669  -3.529  0.00  0.00    +0.000 C 
BRANCH  21  22
ATOM     22  O   UNL     1     -34.298  -7.076  -3.582  0.00  0.00    +0.000 OA
BRANCH  22  23
ATOM     23  C   UNL     1     -35.640  -7.133  -4.349  0.00  0.00    +0.000 C 
ATOM     24  C   UNL     1     -36.088  -5.619  -3.770  0.00  0.00    +0.000 C 
BRANCH  23  25
ATOM     25  C   UNL     1     -36.397  -7.885  -3.053  0.00  0.00    +0.000 C 
BRANCH  25  26
ATOM     26  O   UNL     1     -35.829  -9.096  -3.022  0.00  0.00    +0.000 OA
BRANCH  26  27
ATOM     27  C   UNL     1     -36.455  -9.912  -1.867  0.00  0.00    +0.000 C 
ATOM     28  C   UNL     1     -37.867  -8.996  -1.799  0.00  0.00    +0.000 C 
BRANCH  27  29
ATOM     29  C   UNL     1     -37.147 -11.006  -2.941  0.00  0.00    +0.000 C 
BRANCH  29  31
ATOM     30  C   UNL     1     -36.337 -12.308  -4.489  0.00  0.00    +0.000 C 
ATOM     31  O   UNL     1     -36.000 -11.423  -3.636  0.00  0.00    +0.000 OA
ENDBRANCH  29  31
ENDBRANCH  27  29
ENDBRANCH  26  27
ENDBRANCH  25  26
ENDBRANCH  23  25
ENDBRANCH  22  23
ENDBRANCH  21  22
ENDBRANCH  19  21
ENDBRANCH  18  19
ENDBRANCH   1  18
TORSDOF 12
ENDMDL
MODEL 7
REMARK VINA RESULT:      -5.7     12.800     16.477
REMARK  Name = 
REMARK  12 active torsions:
REMARK  status: ('A' for Active; 'I' for Inactive)
REMARK    1  A    between atoms: O_2  and  C_3
REMARK    2  A    between atoms: C_3  and  C_4
REMARK    3  A    between atoms: C_4  and  O_6
REMARK    4  A    between atoms: O_6  and  C_7
REMARK    5  A    between atoms: C_7  and  C_8
REMARK    6  A    between atoms: C_8  and  O_10
REMARK    7  A    between atoms: O_10  and  C_11
REMARK    8  A    between atoms: C_11  and  C_12
REMARK    9  A    between atoms: C_12  and  O_14
REMARK   10  A    between atoms: O_14  and  C_15
REMARK   11  A    between atoms: C_21  and  C_22
REMARK   12  A    between atoms: C_23  and  C_24
REMARK                            x       y       z     vdW  Elec       q    Type
REMARK                         _______ _______ _______ _____ _____    ______ ____
ROOT
ATOM      1  C   UNL     1     -26.796   8.123  -4.857  0.00  0.00    +0.000 A 
ATOM      2  C   UNL     1     -28.096   8.527  -4.886  0.00  0.00    +0.000 A 
ATOM      3  C   UNL     1     -29.063   7.764  -4.291  0.00  0.00    +0.000 A 
ATOM      4  O   UNL     1     -30.333   8.291  -4.268  0.00  0.00    +0.000 OA
ATOM      5  C   UNL     1     -28.649   6.656  -3.602  0.00  0.00    +0.000 A 
ATOM      6  C   UNL     1     -27.324   6.605  -3.179  0.00  0.00    +0.000 A 
ATOM      7  C   UNL     1     -26.349   7.421  -3.740  0.00  0.00    +0.000 A 
ENDROOT
BRANCH   7   8
ATOM      8  C   UNL     1     -25.051   7.659  -3.164  0.00  0.00    +0.000 C 
ATOM      9  C   UNL     1     -24.158   6.719  -2.851  0.00  0.00    +0.000 C 
BRANCH   9  10
ATOM     10  C   UNL     1     -23.519   6.662  -1.530  0.00  0.00    +0.000 A 
ATOM     11  C   UNL     1     -23.829   7.552  -0.506  0.00  0.00    +0.000 A 
ATOM     12  C   UNL     1     -22.840   8.284   0.146  0.00  0.00    +0.000 A 
ATOM     13  O   UNL     1     -23.232   9.246   1.075  0.00  0.00    +0.000 OA
ATOM     14  C   UNL     1     -21.528   7.827   0.081  0.00  0.00    +0.000 A 
ATOM     15  C   UNL     1     -21.327   6.586  -0.500  0.00  0.00    +0.000 A 
ATOM     16  O   UNL     1     -20.134   5.900  -0.316  0.00  0.00    +0.000 OA
ATOM     17  C   UNL     1     -22.308   6.014  -1.309  0.00  0.00    +0.000 A 
ENDBRANCH   9  10
ENDBRANCH   7   8
BRANCH   1  18
ATOM     18  O   UNL     1     -25.853   8.735  -5.653  0.00  0.00    +0.000 OA
BRANCH  18  19
ATOM     19  C   UNL     1     -25.513   7.798  -6.860  0.00  0.00    +0.000 C 
ATOM     20  C   UNL     1     -23.887   8.196  -6.766  0.00  0.00    +0.000 C 
BRANCH  19  21
ATOM     21  C   UNL     1     -25.808   9.036  -7.950  0.00  0.00    +0.000 C 
BRANCH  21  22
ATOM     22  O   UNL     1     -27.105   8.602  -8.294  0.00  0.00    +0.000 OA
BRANCH  22  23
ATOM     23  C   UNL     1     -27.546   9.942  -8.928  0.00  0.00    +0.000 C 
ATOM     24  C   UNL     1     -29.081   9.810  -8.251  0.00  0.00    +0.000 C 
BRANCH  23  25
ATOM     25  C   UNL     1     -28.063   9.161 -10.321  0.00  0.00    +0.000 C 
BRANCH  25  26
ATOM     26  O   UNL     1     -28.856   8.189  -9.856  0.00  0.00    +0.000 OA
BRANCH  26  27
ATOM     27  C   UNL     1     -29.323   7.314 -11.041  0.00  0.00    +0.000 C 
ATOM     28  C   UNL     1     -28.553   8.245 -12.214  0.00  0.00    +0.000 C 
BRANCH  27  29
ATOM     29  C   UNL     1     -27.991   6.299 -10.889  0.00  0.00    +0.000 C 
BRANCH  29  31
ATOM     30  C   UNL     1     -28.989   4.376 -10.650  0.00  0.00    +0.000 C 
ATOM     31  O   UNL     1     -28.486   5.150 -11.528  0.00  0.00    +0.000 OA
ENDBRANCH  29  31
ENDBRANCH  27  29
ENDBRANCH  26  27
ENDBRANCH  25  26
ENDBRANCH  23  25
ENDBRANCH  22  23
ENDBRANCH  21  22
ENDBRANCH  19  21
ENDBRANCH  18  19
ENDBRANCH   1  18
TORSDOF 12
ENDMDL
MODEL 8
REMARK VINA RESULT:      -5.7     12.681     16.075
REMARK  Name = 
REMARK  12 active torsions:
REMARK  status: ('A' for Active; 'I' for Inactive)
REMARK    1  A    between atoms: O_2  and  C_3
REMARK    2  A    between atoms: C_3  and  C_4
REMARK    3  A    between atoms: C_4  and  O_6
REMARK    4  A    between atoms: O_6  and  C_7
REMARK    5  A    between atoms: C_7  and  C_8
REMARK    6  A    between atoms: C_8  and  O_10
REMARK    7  A    between atoms: O_10  and  C_11
REMARK    8  A    between atoms: C_11  and  C_12
REMARK    9  A    between atoms: C_12  and  O_14
REMARK   10  A    between atoms: O_14  and  C_15
REMARK   11  A    between atoms: C_21  and  C_22
REMARK   12  A    between atoms: C_23  and  C_24
REMARK                            x       y       z     vdW  Elec       q    Type
REMARK                         _______ _______ _______ _____ _____    ______ ____
ROOT
ATOM      1  C   UNL     1     -27.219   8.054  -4.840  0.00  0.00    +0.000 A 
ATOM      2  C   UNL     1     -28.572   8.182  -4.929  0.00  0.00    +0.000 A 
ATOM      3  C   UNL     1     -29.387   7.348  -4.213  0.00  0.00    +0.000 A 
ATOM      4  O   UNL     1     -30.736   7.610  -4.271  0.00  0.00    +0.000 OA
ATOM      5  C   UNL     1     -28.783   6.470  -3.354  0.00  0.00    +0.000 A 
ATOM      6  C   UNL     1     -27.485   6.751  -2.935  0.00  0.00    +0.000 A 
ATOM      7  C   UNL     1     -26.674   7.643  -3.626  0.00  0.00    +0.000 A 
ENDROOT
BRANCH   7   8
ATOM      8  C   UNL     1     -25.465   8.224  -3.103  0.00  0.00    +0.000 C 
ATOM      9  C   UNL     1     -24.226   7.894  -3.470  0.00  0.00    +0.000 C 
BRANCH   9  10
ATOM     10  C   UNL     1     -23.186   7.559  -2.489  0.00  0.00    +0.000 A 
ATOM     11  C   UNL     1     -22.955   6.258  -2.053  0.00  0.00    +0.000 A 
ATOM     12  C   UNL     1     -22.942   5.936  -0.699  0.00  0.00    +0.000 A 
ATOM     13  O   UNL     1     -22.828   4.595  -0.337  0.00  0.00    +0.000 OA
ATOM     14  C   UNL     1     -22.732   6.957   0.222  0.00  0.00    +0.000 A 
ATOM     15  C   UNL     1     -22.395   8.200  -0.290  0.00  0.00    +0.000 A 
ATOM     16  O   UNL     1     -21.844   9.179   0.526  0.00  0.00    +0.000 OA
ATOM     17  C   UNL     1     -22.632   8.503  -1.630  0.00  0.00    +0.000 A 
ENDBRANCH   9  10
ENDBRANCH   7   8
BRANCH   1  18
ATOM     18  O   UNL     1     -26.393   8.705  -5.730  0.00  0.00    +0.000 OA
BRANCH  18  19
ATOM     19  C   UNL     1     -25.902   7.687  -6.814  0.00  0.00    +0.000 C 
ATOM     20  C   UNL     1     -24.499   8.568  -7.067  0.00  0.00    +0.000 C 
BRANCH  19  21
ATOM     21  C   UNL     1     -26.710   8.525  -8.019  0.00  0.00    +0.000 C 
BRANCH  21  22
ATOM     22  O   UNL     1     -25.894   8.062  -9.072  0.00  0.00    +0.000 OA
BRANCH  22  23
ATOM     23  C   UNL     1     -26.731   8.705 -10.203  0.00  0.00    +0.000 C 
ATOM     24  C   UNL     1     -27.988   9.050  -9.139  0.00  0.00    +0.000 C 
BRANCH  23  25
ATOM     25  C   UNL     1     -27.425   7.226 -10.587  0.00  0.00    +0.000 C 
BRANCH  25  26
ATOM     26  O   UNL     1     -28.033   7.463 -11.755  0.00  0.00    +0.000 OA
BRANCH  26  27
ATOM     27  C   UNL     1     -28.960   6.271 -12.088  0.00  0.00    +0.000 C 
ATOM     28  C   UNL     1     -28.440   5.325 -10.794  0.00  0.00    +0.000 C 
BRANCH  27  29
ATOM     29  C   UNL     1     -30.217   6.923 -11.181  0.00  0.00    +0.000 C 
BRANCH  29  31
ATOM     30  C   UNL     1     -32.101   5.986 -10.615  0.00  0.00    +0.000 C 
ATOM     31  O   UNL     1     -30.860   5.743 -10.773  0.00  0.00    +0.000 OA
ENDBRANCH  29  31
ENDBRANCH  27  29
ENDBRANCH  26  27
ENDBRANCH  25  26
ENDBRANCH  23  25
ENDBRANCH  22  23
ENDBRANCH  21  22
ENDBRANCH  19  21
ENDBRANCH  18  19
ENDBRANCH   1  18
TORSDOF 12
ENDMDL
MODEL 9
REMARK VINA RESULT:      -5.5     12.684     15.978
REMARK  Name = 
REMARK  12 active torsions:
REMARK  status: ('A' for Active; 'I' for Inactive)
REMARK    1  A    between atoms: O_2  and  C_3
REMARK    2  A    between atoms: C_3  and  C_4
REMARK    3  A    between atoms: C_4  and  O_6
REMARK    4  A    between atoms: O_6  and  C_7
REMARK    5  A    between atoms: C_7  and  C_8
REMARK    6  A    between atoms: C_8  and  O_10
REMARK    7  A    between atoms: O_10  and  C_11
REMARK    8  A    between atoms: C_11  and  C_12
REMARK    9  A    between atoms: C_12  and  O_14
REMARK   10  A    between atoms: O_14  and  C_15
REMARK   11  A    between atoms: C_21  and  C_22
REMARK   12  A    between atoms: C_23  and  C_24
REMARK                            x       y       z     vdW  Elec       q    Type
REMARK                         _______ _______ _______ _____ _____    ______ ____
ROOT
ATOM      1  C   UNL     1     -28.142   8.061 -10.472  0.00  0.00    +0.000 A 
ATOM      2  C   UNL     1     -29.061   7.057 -10.520  0.00  0.00    +0.000 A 
ATOM      3  C   UNL     1     -28.652   5.764 -10.709  0.00  0.00    +0.000 A 
ATOM      4  O   UNL     1     -29.627   4.797 -10.637  0.00  0.00    +0.000 OA
ATOM      5  C   UNL     1     -27.304   5.535 -10.748  0.00  0.00    +0.000 A 
ATOM      6  C   UNL     1     -26.461   6.485 -10.179  0.00  0.00    +0.000 A 
ATOM      7  C   UNL     1     -26.890   7.783  -9.931  0.00  0.00    +0.000 A 
ENDROOT
BRANCH   7   8
ATOM      8  C   UNL     1     -26.209   8.721  -9.076  0.00  0.00    +0.000 C 
ATOM      9  C   UNL     1     -25.274   8.412  -8.177  0.00  0.00    +0.000 C 
BRANCH   9  10
ATOM     10  C   UNL     1     -25.347   8.880  -6.786  0.00  0.00    +0.000 A 
ATOM     11  C   UNL     1     -24.319   9.595  -6.179  0.00  0.00    +0.000 A 
ATOM     12  C   UNL     1     -23.764   9.187  -4.970  0.00  0.00    +0.000 A 
ATOM     13  O   UNL     1     -22.657   9.879  -4.481  0.00  0.00    +0.000 OA
ATOM     14  C   UNL     1     -24.502   8.331  -4.159  0.00  0.00    +0.000 A 
ATOM     15  C   UNL     1     -25.806   8.071  -4.548  0.00  0.00    +0.000 A 
ATOM     16  O   UNL     1     -26.717   7.520  -3.658  0.00  0.00    +0.000 OA
ATOM     17  C   UNL     1     -26.221   8.331  -5.854  0.00  0.00    +0.000 A 
ENDBRANCH   9  10
ENDBRANCH   7   8
BRANCH   1  18
ATOM     18  O   UNL     1     -28.540   9.378 -10.534  0.00  0.00    +0.000 OA
BRANCH  18  19
ATOM     19  C   UNL     1     -28.858   9.750 -12.022  0.00  0.00    +0.000 C 
ATOM     20  C   UNL     1     -28.259  11.301 -11.808  0.00  0.00    +0.000 C 
BRANCH  19  21
ATOM     21  C   UNL     1     -30.408  10.233 -11.608  0.00  0.00    +0.000 C 
BRANCH  21  22
ATOM     22  O   UNL     1     -31.063   9.269 -12.402  0.00  0.00    +0.000 OA
BRANCH  22  23
ATOM     23  C   UNL     1     -32.488   9.616 -11.910  0.00  0.00    +0.000 C 
ATOM     24  C   UNL     1     -31.928  10.979 -11.100  0.00  0.00    +0.000 C 
BRANCH  23  25
ATOM     25  C   UNL     1     -32.286   8.679 -10.532  0.00  0.00    +0.000 C 
BRANCH  25  26
ATOM     26  O   UNL     1     -32.638   7.453 -10.936  0.00  0.00    +0.000 OA
BRANCH  26  27
ATOM     27  C   UNL     1     -32.814   6.549  -9.694  0.00  0.00    +0.000 C 
ATOM     28  C   UNL     1     -32.333   7.729  -8.593  0.00  0.00    +0.000 C 
BRANCH  27  29
ATOM     29  C   UNL     1     -34.432   6.981  -9.540  0.00  0.00    +0.000 C 
BRANCH  29  31
ATOM     30  C   UNL     1     -35.996   6.452  -8.117  0.00  0.00    +0.000 C 
ATOM     31  O   UNL     1     -34.792   6.186  -8.439  0.00  0.00    +0.000 OA
ENDBRANCH  29  31
ENDBRANCH  27  29
ENDBRANCH  26  27
ENDBRANCH  25  26
ENDBRANCH  23  25
ENDBRANCH  22  23
ENDBRANCH  21  22
ENDBRANCH  19  21
ENDBRANCH  18  19
ENDBRANCH   1  18
TORSDOF 12
ENDMDL
MODEL 10
REMARK VINA RESULT:      -5.5      2.082      5.650
REMARK  Name = 
REMARK  12 active torsions:
REMARK  status: ('A' for Active; 'I' for Inactive)
REMARK    1  A    between atoms: O_2  and  C_3
REMARK    2  A    between atoms: C_3  and  C_4
REMARK    3  A    between atoms: C_4  and  O_6
REMARK    4  A    between atoms: O_6  and  C_7
REMARK    5  A    between atoms: C_7  and  C_8
REMARK    6  A    between atoms: C_8  and  O_10
REMARK    7  A    between atoms: O_10  and  C_11
REMARK    8  A    between atoms: C_11  and  C_12
REMARK    9  A    between atoms: C_12  and  O_14
REMARK   10  A    between atoms: O_14  and  C_15
REMARK   11  A    between atoms: C_21  and  C_22
REMARK   12  A    between atoms: C_23  and  C_24
REMARK                            x       y       z     vdW  Elec       q    Type
REMARK                         _______ _______ _______ _____ _____    ______ ____
ROOT
ATOM      1  C   UNL     1     -31.600  -4.113  -4.470  0.00  0.00    +0.000 A 
ATOM      2  C   UNL     1     -30.744  -3.986  -5.522  0.00  0.00    +0.000 A 
ATOM      3  C   UNL     1     -29.411  -4.250  -5.354  0.00  0.00    +0.000 A 
ATOM      4  O   UNL     1     -28.631  -4.204  -6.486  0.00  0.00    +0.000 OA
ATOM      5  C   UNL     1     -29.017  -4.728  -4.135  0.00  0.00    +0.000 A 
ATOM      6  C   UNL     1     -29.980  -5.317  -3.319  0.00  0.00    +0.000 A 
ATOM      7  C   UNL     1     -31.337  -5.099  -3.522  0.00  0.00    +0.000 A 
ENDROOT
BRANCH   7   8
ATOM      8  C   UNL     1     -32.389  -5.895  -2.944  0.00  0.00    +0.000 C 
ATOM      9  C   UNL     1     -32.754  -7.110  -3.354  0.00  0.00    +0.000 C 
BRANCH   9  10
ATOM     10  C   UNL     1     -34.155  -7.448  -3.639  0.00  0.00    +0.000 A 
ATOM     11  C   UNL     1     -35.043  -7.865  -2.653  0.00  0.00    +0.000 A 
ATOM     12  C   UNL     1     -35.768  -9.047  -2.780  0.00  0.00    +0.000 A 
ATOM     13  O   UNL     1     -36.545  -9.467  -1.701  0.00  0.00    +0.000 OA
ATOM     14  C   UNL     1     -35.937  -9.586  -4.051  0.00  0.00    +0.000 A 
ATOM     15  C   UNL     1     -35.498  -8.819  -5.118  0.00  0.00    +0.000 A 
ATOM     16  O   UNL     1     -35.914  -9.099  -6.412  0.00  0.00    +0.000 OA
ATOM     17  C   UNL     1     -34.605  -7.768  -4.916  0.00  0.00    +0.000 A 
ENDBRANCH   9  10
ENDBRANCH   7   8
BRANCH   1  18
ATOM     18  O   UNL     1     -32.883  -3.619  -4.547  0.00  0.00    +0.000 OA
BRANCH  18  19
ATOM     19  C   UNL     1     -33.192  -3.220  -6.030  0.00  0.00    +0.000 C 
ATOM     20  C   UNL     1     -34.399  -2.165  -5.540  0.00  0.00    +0.000 C 
BRANCH  19  21
ATOM     21  C   UNL     1     -34.283  -4.483  -6.180  0.00  0.00    +0.000 C 
BRANCH  21  22
ATOM     22  O   UNL     1     -35.381  -3.668  -6.526  0.00  0.00    +0.000 OA
BRANCH  22  23
ATOM     23  C   UNL     1     -36.082  -4.730  -7.406  0.00  0.00    +0.000 C 
ATOM     24  C   UNL     1     -37.216  -3.607  -7.938  0.00  0.00    +0.000 C 
BRANCH  23  25
ATOM     25  C   UNL     1     -37.083  -5.182  -6.137  0.00  0.00    +0.000 C 
BRANCH  25  26
ATOM     26  O   UNL     1     -37.627  -4.025  -5.744  0.00  0.00    +0.000 OA
BRANCH  26  27
ATOM     27  C   UNL     1     -38.398  -4.257  -4.424  0.00  0.00    +0.000 C 
ATOM     28  C   UNL     1     -37.556  -5.658  -4.016  0.00  0.00    +0.000 C 
BRANCH  27  29
ATOM     29  C   UNL     1     -37.323  -3.292  -3.562  0.00  0.00    +0.000 C 
BRANCH  29  31
ATOM     30  C   UNL     1     -38.744  -2.788  -1.989  0.00  0.00    +0.000 C 
ATOM     31  O   UNL     1     -38.213  -2.331  -3.053  0.00  0.00    +0.000 OA
ENDBRANCH  29  31
ENDBRANCH  27  29
ENDBRANCH  26  27
ENDBRANCH  25  26
ENDBRANCH  23  25
ENDBRANCH  22  23
ENDBRANCH  21  22
ENDBRANCH  19  21
ENDBRANCH  18  19
ENDBRANCH   1  18
TORSDOF 12
ENDMDL
