MODEL 1
REMARK VINA RESULT:      -7.7      0.000      0.000
REMARK  Name = 
REMARK  6 active torsions:
REMARK  status: ('A' for Active; 'I' for Inactive)
REMARK    1  A    between atoms: C_2  and  O_5
REMARK    2  A    between atoms: O_5  and  C_6
REMARK    3  A    between atoms: C_11  and  O_12
REMARK    4  A    between atoms: O_12  and  C_13
REMARK    5  A    between atoms: C_19  and  C_20
REMARK    6  A    between atoms: C_21  and  C_22
REMARK                            x       y       z     vdW  Elec       q    Type
REMARK                         _______ _______ _______ _____ _____    ______ ____
ROOT
ATOM      1  C   UNL     1     -37.246  -4.434  -7.554  0.00  0.00    +0.000 A 
ATOM      2  C   UNL     1     -37.501  -3.350  -6.764  0.00  0.00    +0.000 A 
ATOM      3  C   UNL     1     -37.905  -2.115  -7.263  0.00  0.00    +0.000 A 
ATOM      4  O   UNL     1     -37.423  -1.003  -6.562  0.00  0.00    +0.000 OA
ATOM      5  C   UNL     1     -37.930  -2.012  -8.650  0.00  0.00    +0.000 A 
ATOM      6  C   UNL     1     -38.057  -3.178  -9.397  0.00  0.00    +0.000 A 
ATOM      7  C   UNL     1     -37.792  -4.413  -8.831  0.00  0.00    +0.000 A 
ENDROOT
BRANCH   7   8
ATOM      8  C   UNL     1     -37.953  -5.672  -9.522  0.00  0.00    +0.000 C 
ATOM      9  C   UNL     1     -37.746  -5.827 -10.820  0.00  0.00    +0.000 C 
BRANCH   9  10
ATOM     10  C   UNL     1     -37.031  -6.962 -11.385  0.00  0.00    +0.000 A 
ATOM     11  C   UNL     1     -36.475  -6.847 -12.632  0.00  0.00    +0.000 A 
ATOM     12  C   UNL     1     -35.846  -7.963 -13.160  0.00  0.00    +0.000 A 
ATOM     13  O   UNL     1     -35.500  -7.907 -14.497  0.00  0.00    +0.000 OA
ATOM     14  C   UNL     1     -35.454  -8.979 -12.326  0.00  0.00    +0.000 A 
ATOM     15  C   UNL     1     -35.880  -8.978 -11.025  0.00  0.00    +0.000 A 
ATOM     16  O   UNL     1     -35.440  -9.988 -10.181  0.00  0.00    +0.000 OA
ATOM     17  C   UNL     1     -36.727  -8.000 -10.532  0.00  0.00    +0.000 A 
ENDBRANCH   9  10
ENDBRANCH   7   8
BRANCH   1  18
ATOM     18  O   UNL     1     -36.341  -5.466  -7.239  0.00  0.00    +0.000 OA
BRANCH  18  24
ATOM     19  C   UNL     1     -32.087  -4.232  -4.410  0.00  0.00    +0.000 C 
ATOM     20  O   UNL     1     -31.998  -2.996  -4.208  0.00  0.00    +0.000 OA
ATOM     21  N   UNL     1     -33.013  -4.811  -5.336  0.00  0.00    +0.000 N 
ATOM     22  C   UNL     1     -32.898  -4.443  -6.732  0.00  0.00    +0.000 C 
ATOM     23  C   UNL     1     -34.155  -4.788  -7.517  0.00  0.00    +0.000 C 
ATOM     24  C   UNL     1     -35.257  -4.908  -6.300  0.00  0.00    +0.000 C 
ATOM     25  C   UNL     1     -34.735  -6.425  -5.911  0.00  0.00    +0.000 C 
ATOM     26  C   UNL     1     -33.699  -5.999  -4.909  0.00  0.00    +0.000 C 
ATOM     27  O   UNL     1     -34.134  -5.988  -3.716  0.00  0.00    +0.000 OA
BRANCH  19  28
ATOM     28  O   UNL     1     -30.993  -5.062  -4.145  0.00  0.00    +0.000 OA
BRANCH  28  30
ATOM     29  C   UNL     1     -30.248  -5.151  -2.810  0.00  0.00    +0.000 C 
ATOM     30  C   UNL     1     -30.552  -5.302  -2.805  0.00  0.00    +0.000 C 
ATOM     31  C   UNL     1     -31.676  -4.762  -1.922  0.00  0.00    +0.000 C 
ATOM     32  C   UNL     1     -30.496  -6.812  -2.580  0.00  0.00    +0.000 C 
ENDBRANCH  28  30
ENDBRANCH  19  28
ENDBRANCH  18  24
ENDBRANCH   1  18
TORSDOF 6
ENDMDL
MODEL 2
REMARK VINA RESULT:      -7.6     14.272     16.786
REMARK  Name = 
REMARK  6 active torsions:
REMARK  status: ('A' for Active; 'I' for Inactive)
REMARK    1  A    between atoms: C_2  and  O_5
REMARK    2  A    between atoms: O_5  and  C_6
REMARK    3  A    between atoms: C_11  and  O_12
REMARK    4  A    between atoms: O_12  and  C_13
REMARK    5  A    between atoms: C_19  and  C_20
REMARK    6  A    between atoms: C_21  and  C_22
REMARK                            x       y       z     vdW  Elec       q    Type
REMARK                         _______ _______ _______ _____ _____    ______ ____
ROOT
ATOM      1  C   UNL     1     -28.797   6.982 -11.469  0.00  0.00    +0.000 A 
ATOM      2  C   UNL     1     -28.411   5.679 -11.342  0.00  0.00    +0.000 A 
ATOM      3  C   UNL     1     -29.246   4.675 -10.857  0.00  0.00    +0.000 A 
ATOM      4  O   UNL     1     -28.608   3.681 -10.105  0.00  0.00    +0.000 OA
ATOM      5  C   UNL     1     -30.486   5.104 -10.395  0.00  0.00    +0.000 A 
ATOM      6  C   UNL     1     -30.993   6.304 -10.879  0.00  0.00    +0.000 A 
ATOM      7  C   UNL     1     -30.163   7.225 -11.495  0.00  0.00    +0.000 A 
ENDROOT
BRANCH   7   8
ATOM      8  C   UNL     1     -30.621   8.468 -12.074  0.00  0.00    +0.000 C 
ATOM      9  C   UNL     1     -31.840   8.954 -11.896  0.00  0.00    +0.000 C 
BRANCH   9  10
ATOM     10  C   UNL     1     -32.107  10.357 -11.616  0.00  0.00    +0.000 A 
ATOM     11  C   UNL     1     -31.078  11.163 -11.207  0.00  0.00    +0.000 A 
ATOM     12  C   UNL     1     -31.377  12.481 -10.899  0.00  0.00    +0.000 A 
ATOM     13  O   UNL     1     -30.388  13.213 -10.269  0.00  0.00    +0.000 OA
ATOM     14  C   UNL     1     -32.541  13.038 -11.364  0.00  0.00    +0.000 A 
ATOM     15  C   UNL     1     -33.487  12.231 -11.935  0.00  0.00    +0.000 A 
ATOM     16  O   UNL     1     -34.641  12.814 -12.441  0.00  0.00    +0.000 OA
ATOM     17  C   UNL     1     -33.321  10.859 -12.026  0.00  0.00    +0.000 A 
ENDBRANCH   9  10
ENDBRANCH   7   8
BRANCH   1  18
ATOM     18  O   UNL     1     -27.930   8.089 -11.393  0.00  0.00    +0.000 OA
BRANCH  18  24
ATOM     19  C   UNL     1     -26.273   9.682  -6.667  0.00  0.00    +0.000 C 
ATOM     20  O   UNL     1     -27.229   9.913  -5.885  0.00  0.00    +0.000 OA
ATOM     21  N   UNL     1     -26.443   9.460  -8.070  0.00  0.00    +0.000 N 
ATOM     22  C   UNL     1     -27.025  10.524  -8.862  0.00  0.00    +0.000 C 
ATOM     23  C   UNL     1     -27.518  10.026 -10.212  0.00  0.00    +0.000 C 
ATOM     24  C   UNL     1     -27.663   8.413  -9.912  0.00  0.00    +0.000 C 
ATOM     25  C   UNL     1     -26.038   8.184 -10.098  0.00  0.00    +0.000 C 
ATOM     26  C   UNL     1     -25.668   8.403  -8.658  0.00  0.00    +0.000 C 
ATOM     27  O   UNL     1     -25.608   7.324  -7.990  0.00  0.00    +0.000 OA
BRANCH  19  28
ATOM     28  O   UNL     1     -24.985  10.115  -6.337  0.00  0.00    +0.000 OA
BRANCH  28  30
ATOM     29  C   UNL     1     -23.920   9.217  -5.700  0.00  0.00    +0.000 C 
ATOM     30  C   UNL     1     -24.142   9.344  -5.476  0.00  0.00    +0.000 C 
ATOM     31  C   UNL     1     -23.684  10.325  -4.397  0.00  0.00    +0.000 C 
ATOM     32  C   UNL     1     -24.999   8.288  -4.781  0.00  0.00    +0.000 C 
ENDBRANCH  28  30
ENDBRANCH  19  28
ENDBRANCH  18  24
ENDBRANCH   1  18
TORSDOF 6
ENDMDL
MODEL 3
REMARK VINA RESULT:      -7.6     20.916     23.306
REMARK  Name = 
REMARK  6 active torsions:
REMARK  status: ('A' for Active; 'I' for Inactive)
REMARK    1  A    between atoms: C_2  and  O_5
REMARK    2  A    between atoms: O_5  and  C_6
REMARK    3  A    between atoms: C_11  and  O_12
REMARK    4  A    between atoms: O_12  and  C_13
REMARK    5  A    between atoms: C_19  and  C_20
REMARK    6  A    between atoms: C_21  and  C_22
REMARK                            x       y       z     vdW  Elec       q    Type
REMARK                         _______ _______ _______ _____ _____    ______ ____
ROOT
ATOM      1  C   UNL     1     -18.898  -6.221   7.723  0.00  0.00    +0.000 A 
ATOM      2  C   UNL     1     -20.004  -6.870   8.191  0.00  0.00    +0.000 A 
ATOM      3  C   UNL     1     -20.585  -6.604   9.428  0.00  0.00    +0.000 A 
ATOM      4  O   UNL     1     -21.138  -7.713  10.079  0.00  0.00    +0.000 OA
ATOM      5  C   UNL     1     -19.897  -5.695  10.225  0.00  0.00    +0.000 A 
ATOM      6  C   UNL     1     -19.045  -4.786   9.608  0.00  0.00    +0.000 A 
ATOM      7  C   UNL     1     -18.599  -5.001   8.315  0.00  0.00    +0.000 A 
ENDROOT
BRANCH   7   8
ATOM      8  C   UNL     1     -17.758  -4.080   7.585  0.00  0.00    +0.000 C 
ATOM      9  C   UNL     1     -18.222  -3.027   6.930  0.00  0.00    +0.000 C 
BRANCH   9  10
ATOM     10  C   UNL     1     -17.591  -1.716   6.977  0.00  0.00    +0.000 A 
ATOM     11  C   UNL     1     -16.461  -1.492   6.235  0.00  0.00    +0.000 A 
ATOM     12  C   UNL     1     -15.857  -0.250   6.343  0.00  0.00    +0.000 A 
ATOM     13  O   UNL     1     -14.603  -0.117   5.778  0.00  0.00    +0.000 OA
ATOM     14  C   UNL     1     -16.571   0.810   6.841  0.00  0.00    +0.000 A 
ATOM     15  C   UNL     1     -17.788   0.582   7.424  0.00  0.00    +0.000 A 
ATOM     16  O   UNL     1     -18.518   1.668   7.885  0.00  0.00    +0.000 OA
ATOM     17  C   UNL     1     -18.307  -0.694   7.560  0.00  0.00    +0.000 A 
ENDBRANCH   9  10
ENDBRANCH   7   8
BRANCH   1  18
ATOM     18  O   UNL     1     -17.960  -6.771   6.830  0.00  0.00    +0.000 OA
BRANCH  18  24
ATOM     19  C   UNL     1     -19.263 -11.198   4.315  0.00  0.00    +0.000 C 
ATOM     20  O   UNL     1     -20.377 -11.642   4.689  0.00  0.00    +0.000 OA
ATOM     21  N   UNL     1     -18.571 -10.145   4.993  0.00  0.00    +0.000 N 
ATOM     22  C   UNL     1     -18.185 -10.362   6.373  0.00  0.00    +0.000 C 
ATOM     23  C   UNL     1     -17.840  -9.060   7.080  0.00  0.00    +0.000 C 
ATOM     24  C   UNL     1     -18.601  -7.970   6.108  0.00  0.00    +0.000 C 
ATOM     25  C   UNL     1     -17.377  -8.029   5.001  0.00  0.00    +0.000 C 
ATOM     26  C   UNL     1     -17.949  -9.144   4.172  0.00  0.00    +0.000 C 
ATOM     27  O   UNL     1     -18.638  -8.730   3.188  0.00  0.00    +0.000 OA
BRANCH  19  28
ATOM     28  O   UNL     1     -18.413 -12.005   3.552  0.00  0.00    +0.000 OA
BRANCH  28  30
ATOM     29  C   UNL     1     -18.110 -13.288   4.332  0.00  0.00    +0.000 C 
ATOM     30  C   UNL     1     -17.904 -13.240   4.067  0.00  0.00    +0.000 C 
ATOM     31  C   UNL     1     -17.930 -14.198   2.877  0.00  0.00    +0.000 C 
ATOM     32  C   UNL     1     -16.438 -13.037   4.443  0.00  0.00    +0.000 C 
ENDBRANCH  28  30
ENDBRANCH  19  28
ENDBRANCH  18  24
ENDBRANCH   1  18
TORSDOF 6
ENDMDL
MODEL 4
REMARK VINA RESULT:      -7.5      3.997      8.453
REMARK  Name = 
REMARK  6 active torsions:
REMARK  status: ('A' for Active; 'I' for Inactive)
REMARK    1  A    between atoms: C_2  and  O_5
REMARK    2  A    between atoms: O_5  and  C_6
REMARK    3  A    between atoms: C_11  and  O_12
REMARK    4  A    between atoms: O_12  and  C_13
REMARK    5  A    between atoms: C_19  and  C_20
REMARK    6  A    between atoms: C_21  and  C_22
REMARK                            x       y       z     vdW  Elec       q    Type
REMARK                         _______ _______ _______ _____ _____    ______ ____
ROOT
ATOM      1  C   UNL     1     -35.012  -5.851  -3.976  0.00  0.00    +0.000 A 
ATOM      2  C   UNL     1     -36.213  -6.441  -3.704  0.00  0.00    +0.000 A 
ATOM      3  C   UNL     1     -36.341  -7.619  -2.972  0.00  0.00    +0.000 A 
ATOM      4  O   UNL     1     -37.381  -8.463  -3.377  0.00  0.00    +0.000 OA
ATOM      5  C   UNL     1     -35.143  -8.233  -2.619  0.00  0.00    +0.000 A 
ATOM      6  C   UNL     1     -33.995  -7.454  -2.552  0.00  0.00    +0.000 A 
ATOM      7  C   UNL     1     -33.945  -6.214  -3.166  0.00  0.00    +0.000 A 
ENDROOT
BRANCH   7   8
ATOM      8  C   UNL     1     -32.811  -5.321  -3.097  0.00  0.00    +0.000 C 
ATOM      9  C   UNL     1     -31.557  -5.713  -3.262  0.00  0.00    +0.000 C 
BRANCH   9  10
ATOM     10  C   UNL     1     -30.588  -4.976  -4.058  0.00  0.00    +0.000 A 
ATOM     11  C   UNL     1     -29.300  -4.863  -3.604  0.00  0.00    +0.000 A 
ATOM     12  C   UNL     1     -28.415  -4.111  -4.360  0.00  0.00    +0.000 A 
ATOM     13  O   UNL     1     -27.197  -3.812  -3.779  0.00  0.00    +0.000 OA
ATOM     14  C   UNL     1     -28.705  -3.843  -5.674  0.00  0.00    +0.000 A 
ATOM     15  C   UNL     1     -29.953  -4.132  -6.156  0.00  0.00    +0.000 A 
ATOM     16  O   UNL     1     -30.218  -3.895  -7.498  0.00  0.00    +0.000 OA
ATOM     17  C   UNL     1     -30.948  -4.654  -5.347  0.00  0.00    +0.000 A 
ENDBRANCH   9  10
ENDBRANCH   7   8
BRANCH   1  18
ATOM     18  O   UNL     1     -34.744  -5.057  -5.108  0.00  0.00    +0.000 OA
BRANCH  18  24
ATOM     19  C   UNL     1     -38.328  -1.539  -6.657  0.00  0.00    +0.000 C 
ATOM     20  O   UNL     1     -39.477  -2.040  -6.735  0.00  0.00    +0.000 OA
ATOM     21  N   UNL     1     -37.142  -2.321  -6.484  0.00  0.00    +0.000 N 
ATOM     22  C   UNL     1     -36.810  -3.290  -7.509  0.00  0.00    +0.000 C 
ATOM     23  C   UNL     1     -35.791  -4.309  -7.021  0.00  0.00    +0.000 C 
ATOM     24  C   UNL     1     -35.965  -4.163  -5.390  0.00  0.00    +0.000 C 
ATOM     25  C   UNL     1     -35.038  -2.797  -5.365  0.00  0.00    +0.000 C 
ATOM     26  C   UNL     1     -36.166  -1.821  -5.556  0.00  0.00    +0.000 C 
ATOM     27  O   UNL     1     -36.624  -1.369  -4.462  0.00  0.00    +0.000 OA
BRANCH  19  28
ATOM     28  O   UNL     1     -38.075  -0.286  -7.224  0.00  0.00    +0.000 OA
BRANCH  28  30
ATOM     29  C   UNL     1     -38.735   0.787  -6.353  0.00  0.00    +0.000 C 
ATOM     30  C   UNL     1     -38.563   0.915  -6.616  0.00  0.00    +0.000 C 
ATOM     31  C   UNL     1     -37.318   1.773  -6.395  0.00  0.00    +0.000 C 
ATOM     32  C   UNL     1     -39.434   1.649  -7.633  0.00  0.00    +0.000 C 
ENDBRANCH  28  30
ENDBRANCH  19  28
ENDBRANCH  18  24
ENDBRANCH   1  18
TORSDOF 6
ENDMDL
MODEL 5
REMARK VINA RESULT:      -7.5     16.537     21.947
REMARK  Name = 
REMARK  6 active torsions:
REMARK  status: ('A' for Active; 'I' for Inactive)
REMARK    1  A    between atoms: C_2  and  O_5
REMARK    2  A    between atoms: O_5  and  C_6
REMARK    3  A    between atoms: C_11  and  O_12
REMARK    4  A    between atoms: O_12  and  C_13
REMARK    5  A    between atoms: C_19  and  C_20
REMARK    6  A    between atoms: C_21  and  C_22
REMARK                            x       y       z     vdW  Elec       q    Type
REMARK                         _______ _______ _______ _____ _____    ______ ____
ROOT
ATOM      1  C   UNL     1     -20.643  -5.972   9.335  0.00  0.00    +0.000 A 
ATOM      2  C   UNL     1     -21.067  -7.257   9.520  0.00  0.00    +0.000 A 
ATOM      3  C   UNL     1     -20.652  -8.324   8.727  0.00  0.00    +0.000 A 
ATOM      4  O   UNL     1     -21.619  -9.311   8.503  0.00  0.00    +0.000 OA
ATOM      5  C   UNL     1     -19.848  -7.984   7.644  0.00  0.00    +0.000 A 
ATOM      6  C   UNL     1     -19.130  -6.794   7.701  0.00  0.00    +0.000 A 
ATOM      7  C   UNL     1     -19.473  -5.805   8.606  0.00  0.00    +0.000 A 
ENDROOT
BRANCH   7   8
ATOM      8  C   UNL     1     -18.745  -4.566   8.766  0.00  0.00    +0.000 C 
ATOM      9  C   UNL     1     -17.959  -4.053   7.833  0.00  0.00    +0.000 C 
BRANCH   9  10
ATOM     10  C   UNL     1     -17.947  -2.639   7.487  0.00  0.00    +0.000 A 
ATOM     11  C   UNL     1     -18.523  -1.738   8.343  0.00  0.00    +0.000 A 
ATOM     12  C   UNL     1     -18.541  -0.407   7.959  0.00  0.00    +0.000 A 
ATOM     13  O   UNL     1     -19.323   0.448   8.712  0.00  0.00    +0.000 OA
ATOM     14  C   UNL     1     -17.680   0.028   6.984  0.00  0.00    +0.000 A 
ATOM     15  C   UNL     1     -16.975  -0.891   6.255  0.00  0.00    +0.000 A 
ATOM     16  O   UNL     1     -16.075  -0.435   5.301  0.00  0.00    +0.000 OA
ATOM     17  C   UNL     1     -17.131  -2.253   6.448  0.00  0.00    +0.000 A 
ENDBRANCH   9  10
ENDBRANCH   7   8
BRANCH   1  18
ATOM     18  O   UNL     1     -21.386  -4.824   9.666  0.00  0.00    +0.000 OA
BRANCH  18  24
ATOM     19  C   UNL     1     -26.001  -3.984   7.296  0.00  0.00    +0.000 C 
ATOM     20  O   UNL     1     -25.955  -4.245   6.069  0.00  0.00    +0.000 OA
ATOM     21  N   UNL     1     -24.837  -3.905   8.126  0.00  0.00    +0.000 N 
ATOM     22  C   UNL     1     -23.837  -2.908   7.802  0.00  0.00    +0.000 C 
ATOM     23  C   UNL     1     -22.506  -3.194   8.481  0.00  0.00    +0.000 C 
ATOM     24  C   UNL     1     -22.670  -4.798   8.817  0.00  0.00    +0.000 C 
ATOM     25  C   UNL     1     -23.604  -4.476  10.140  0.00  0.00    +0.000 C 
ATOM     26  C   UNL     1     -24.927  -4.506   9.427  0.00  0.00    +0.000 C 
ATOM     27  O   UNL     1     -25.491  -5.643   9.473  0.00  0.00    +0.000 OA
BRANCH  19  28
ATOM     28  O   UNL     1     -27.089  -3.274   7.817  0.00  0.00    +0.000 OA
BRANCH  28  30
ATOM     29  C   UNL     1     -28.458  -3.807   8.249  0.00  0.00    +0.000 C 
ATOM     30  C   UNL     1     -28.383  -3.876   7.925  0.00  0.00    +0.000 C 
ATOM     31  C   UNL     1     -29.196  -3.257   6.789  0.00  0.00    +0.000 C 
ATOM     32  C   UNL     1     -28.249  -5.365   7.615  0.00  0.00    +0.000 C 
ENDBRANCH  28  30
ENDBRANCH  19  28
ENDBRANCH  18  24
ENDBRANCH   1  18
TORSDOF 6
ENDMDL
MODEL 6
REMARK VINA RESULT:      -7.4      2.451      8.656
REMARK  Name = 
REMARK  6 active torsions:
REMARK  status: ('A' for Active; 'I' for Inactive)
REMARK    1  A    between atoms: C_2  and  O_5
REMARK    2  A    between atoms: O_5  and  C_6
REMARK    3  A    between atoms: C_11  and  O_12
REMARK    4  A    between atoms: O_12  and  C_13
REMARK    5  A    between atoms: C_19  and  C_20
REMARK    6  A    between atoms: C_21  and  C_22
REMARK                            x       y       z     vdW  Elec       q    Type
REMARK                         _______ _______ _______ _____ _____    ______ ____
ROOT
ATOM      1  C   UNL     1     -36.108  -5.602  -7.907  0.00  0.00    +0.000 A 
ATOM      2  C   UNL     1     -37.314  -5.155  -8.366  0.00  0.00    +0.000 A 
ATOM      3  C   UNL     1     -37.906  -3.970  -7.938  0.00  0.00    +0.000 A 
ATOM      4  O   UNL     1     -39.304  -3.996  -7.859  0.00  0.00    +0.000 OA
ATOM      5  C   UNL     1     -37.238  -3.306  -6.914  0.00  0.00    +0.000 A 
ATOM      6  C   UNL     1     -35.878  -3.544  -6.749  0.00  0.00    +0.000 A 
ATOM      7  C   UNL     1     -35.282  -4.658  -7.314  0.00  0.00    +0.000 A 
ENDROOT
BRANCH   7   8
ATOM      8  C   UNL     1     -33.867  -4.946  -7.235  0.00  0.00    +0.000 C 
ATOM      9  C   UNL     1     -32.967  -4.083  -6.791  0.00  0.00    +0.000 C 
BRANCH   9  10
ATOM     10  C   UNL     1     -31.887  -4.450  -5.887  0.00  0.00    +0.000 A 
ATOM     11  C   UNL     1     -31.908  -5.682  -5.288  0.00  0.00    +0.000 A 
ATOM     12  C   UNL     1     -30.892  -5.980  -4.394  0.00  0.00    +0.000 A 
ATOM     13  O   UNL     1     -31.050  -7.119  -3.628  0.00  0.00    +0.000 OA
ATOM     14  C   UNL     1     -29.731  -5.250  -4.421  0.00  0.00    +0.000 A 
ATOM     15  C   UNL     1     -29.675  -4.108  -5.174  0.00  0.00    +0.000 A 
ATOM     16  O   UNL     1     -28.480  -3.404  -5.226  0.00  0.00    +0.000 OA
ATOM     17  C   UNL     1     -30.770  -3.645  -5.883  0.00  0.00    +0.000 A 
ENDBRANCH   9  10
ENDBRANCH   7   8
BRANCH   1  18
ATOM     18  O   UNL     1     -35.727  -6.955  -7.832  0.00  0.00    +0.000 OA
BRANCH  18  24
ATOM     19  C   UNL     1     -37.052  -9.768 -12.070  0.00  0.00    +0.000 C 
ATOM     20  O   UNL     1     -38.104 -10.428 -11.887  0.00  0.00    +0.000 OA
ATOM     21  N   UNL     1     -36.349  -9.104 -11.014  0.00  0.00    +0.000 N 
ATOM     22  C   UNL     1     -35.828  -9.912  -9.930  0.00  0.00    +0.000 C 
ATOM     23  C   UNL     1     -35.480  -9.073  -8.710  0.00  0.00    +0.000 C 
ATOM     24  C   UNL     1     -36.376  -7.722  -8.998  0.00  0.00    +0.000 C 
ATOM     25  C   UNL     1     -35.258  -7.149 -10.069  0.00  0.00    +0.000 C 
ATOM     26  C   UNL     1     -35.852  -7.786 -11.295  0.00  0.00    +0.000 C 
ATOM     27  O   UNL     1     -36.646  -7.017 -11.919  0.00  0.00    +0.000 OA
BRANCH  19  28
ATOM     28  O   UNL     1     -36.239 -10.045 -13.174  0.00  0.00    +0.000 OA
BRANCH  28  30
ATOM     29  C   UNL     1     -36.988  -9.695 -14.462  0.00  0.00    +0.000 C 
ATOM     30  C   UNL     1     -36.651  -9.708 -14.502  0.00  0.00    +0.000 C 
ATOM     31  C   UNL     1     -35.860  -8.447 -14.848  0.00  0.00    +0.000 C 
ATOM     32  C   UNL     1     -36.174 -10.807 -15.448  0.00  0.00    +0.000 C 
ENDBRANCH  28  30
ENDBRANCH  19  28
ENDBRANCH  18  24
ENDBRANCH   1  18
TORSDOF 6
ENDMDL
MODEL 7
REMARK VINA RESULT:      -7.0      3.678      7.233
REMARK  Name = 
REMARK  6 active torsions:
REMARK  status: ('A' for Active; 'I' for Inactive)
REMARK    1  A    between atoms: C_2  and  O_5
REMARK    2  A    between atoms: O_5  and  C_6
REMARK    3  A    between atoms: C_11  and  O_12
REMARK    4  A    between atoms: O_12  and  C_13
REMARK    5  A    between atoms: C_19  and  C_20
REMARK    6  A    between atoms: C_21  and  C_22
REMARK                            x       y       z     vdW  Elec       q    Type
REMARK                         _______ _______ _______ _____ _____    ______ ____
ROOT
ATOM      1  C   UNL     1     -30.473  -5.145  -5.836  0.00  0.00    +0.000 A 
ATOM      2  C   UNL     1     -29.233  -4.583  -5.735  0.00  0.00    +0.000 A 
ATOM      3  C   UNL     1     -28.593  -4.350  -4.521  0.00  0.00    +0.000 A 
ATOM      4  O   UNL     1     -27.799  -3.197  -4.478  0.00  0.00    +0.000 OA
ATOM      5  C   UNL     1     -29.349  -4.627  -3.387  0.00  0.00    +0.000 A 
ATOM      6  C   UNL     1     -30.399  -5.531  -3.496  0.00  0.00    +0.000 A 
ATOM      7  C   UNL     1     -30.921  -5.861  -4.735  0.00  0.00    +0.000 A 
ENDROOT
BRANCH   7   8
ATOM      8  C   UNL     1     -31.972  -6.832  -4.937  0.00  0.00    +0.000 C 
ATOM      9  C   UNL     1     -32.777  -7.253  -3.974  0.00  0.00    +0.000 C 
BRANCH   9  10
ATOM     10  C   UNL     1     -34.213  -7.417  -4.148  0.00  0.00    +0.000 A 
ATOM     11  C   UNL     1     -34.723  -7.536  -5.414  0.00  0.00    +0.000 A 
ATOM     12  C   UNL     1     -36.098  -7.639  -5.546  0.00  0.00    +0.000 A 
ATOM     13  O   UNL     1     -36.611  -7.523  -6.824  0.00  0.00    +0.000 OA
ATOM     14  C   UNL     1     -36.857  -8.006  -4.464  0.00  0.00    +0.000 A 
ATOM     15  C   UNL     1     -36.277  -8.053  -3.225  0.00  0.00    +0.000 A 
ATOM     16  O   UNL     1     -37.046  -8.469  -2.147  0.00  0.00    +0.000 OA
ATOM     17  C   UNL     1     -34.953  -7.705  -3.023  0.00  0.00    +0.000 A 
ENDBRANCH   9  10
ENDBRANCH   7   8
BRANCH   1  18
ATOM     18  O   UNL     1     -31.384  -4.903  -6.883  0.00  0.00    +0.000 OA
BRANCH  18  24
ATOM     19  C   UNL     1     -36.224  -3.341  -5.558  0.00  0.00    +0.000 C 
ATOM     20  O   UNL     1     -36.898  -4.273  -5.053  0.00  0.00    +0.000 OA
ATOM     21  N   UNL     1     -34.967  -3.547  -6.211  0.00  0.00    +0.000 N 
ATOM     22  C   UNL     1     -34.940  -4.398  -7.383  0.00  0.00    +0.000 C 
ATOM     23  C   UNL     1     -33.530  -4.855  -7.724  0.00  0.00    +0.000 C 
ATOM     24  C   UNL     1     -32.772  -4.621  -6.281  0.00  0.00    +0.000 C 
ATOM     25  C   UNL     1     -32.626  -3.001  -6.565  0.00  0.00    +0.000 C 
ATOM     26  C   UNL     1     -33.927  -2.597  -5.929  0.00  0.00    +0.000 C 
ATOM     27  O   UNL     1     -33.802  -2.259  -4.712  0.00  0.00    +0.000 OA
BRANCH  19  28
ATOM     28  O   UNL     1     -36.858  -2.162  -5.960  0.00  0.00    +0.000 OA
BRANCH  28  30
ATOM     29  C   UNL     1     -37.144  -0.918  -5.113  0.00  0.00    +0.000 C 
ATOM     30  C   UNL     1     -37.304  -1.196  -5.002  0.00  0.00    +0.000 C 
ATOM     31  C   UNL     1     -38.830  -1.282  -5.043  0.00  0.00    +0.000 C 
ATOM     32  C   UNL     1     -36.870  -1.659  -3.614  0.00  0.00    +0.000 C 
ENDBRANCH  28  30
ENDBRANCH  19  28
ENDBRANCH  18  24
ENDBRANCH   1  18
TORSDOF 6
ENDMDL
MODEL 8
REMARK VINA RESULT:      -7.0      4.103      7.000
REMARK  Name = 
REMARK  6 active torsions:
REMARK  status: ('A' for Active; 'I' for Inactive)
REMARK    1  A    between atoms: C_2  and  O_5
REMARK    2  A    between atoms: O_5  and  C_6
REMARK    3  A    between atoms: C_11  and  O_12
REMARK    4  A    between atoms: O_12  and  C_13
REMARK    5  A    between atoms: C_19  and  C_20
REMARK    6  A    between atoms: C_21  and  C_22
REMARK                            x       y       z     vdW  Elec       q    Type
REMARK                         _______ _______ _______ _____ _____    ______ ____
ROOT
ATOM      1  C   UNL     1     -37.060  -2.108  -5.807  0.00  0.00    +0.000 A 
ATOM      2  C   UNL     1     -36.882  -1.047  -6.647  0.00  0.00    +0.000 A 
ATOM      3  C   UNL     1     -37.831  -0.043  -6.828  0.00  0.00    +0.000 A 
ATOM      4  O   UNL     1     -37.901   0.485  -8.122  0.00  0.00    +0.000 OA
ATOM      5  C   UNL     1     -39.041  -0.244  -6.171  0.00  0.00    +0.000 A 
ATOM      6  C   UNL     1     -39.060  -1.074  -5.057  0.00  0.00    +0.000 A 
ATOM      7  C   UNL     1     -38.025  -1.962  -4.820  0.00  0.00    +0.000 A 
ENDROOT
BRANCH   7   8
ATOM      8  C   UNL     1     -37.942  -2.817  -3.657  0.00  0.00    +0.000 C 
ATOM      9  C   UNL     1     -38.534  -2.547  -2.505  0.00  0.00    +0.000 C 
BRANCH   9  10
ATOM     10  C   UNL     1     -39.249  -3.543  -1.721  0.00  0.00    +0.000 A 
ATOM     11  C   UNL     1     -39.163  -3.506  -0.355  0.00  0.00    +0.000 A 
ATOM     12  C   UNL     1     -39.813  -4.499   0.359  0.00  0.00    +0.000 A 
ATOM     13  O   UNL     1     -39.528  -4.586   1.708  0.00  0.00    +0.000 OA
ATOM     14  C   UNL     1     -40.807  -5.227  -0.245  0.00  0.00    +0.000 A 
ATOM     15  C   UNL     1     -40.993  -5.113  -1.597  0.00  0.00    +0.000 A 
ATOM     16  O   UNL     1     -42.030  -5.822  -2.187  0.00  0.00    +0.000 OA
ATOM     17  C   UNL     1     -40.182  -4.311  -2.382  0.00  0.00    +0.000 A 
ENDBRANCH   9  10
ENDBRANCH   7   8
BRANCH   1  18
ATOM     18  O   UNL     1     -36.475  -3.377  -5.978  0.00  0.00    +0.000 OA
BRANCH  18  24
ATOM     19  C   UNL     1     -31.308  -3.946  -5.198  0.00  0.00    +0.000 C 
ATOM     20  O   UNL     1     -30.652  -2.984  -5.668  0.00  0.00    +0.000 OA
ATOM     21  N   UNL     1     -32.698  -4.156  -5.472  0.00  0.00    +0.000 N 
ATOM     22  C   UNL     1     -33.095  -4.365  -6.849  0.00  0.00    +0.000 C 
ATOM     23  C   UNL     1     -34.591  -4.167  -7.047  0.00  0.00    +0.000 C 
ATOM     24  C   UNL     1     -34.961  -3.268  -5.718  0.00  0.00    +0.000 C 
ATOM     25  C   UNL     1     -34.974  -4.608  -4.754  0.00  0.00    +0.000 C 
ATOM     26  C   UNL     1     -33.523  -4.554  -4.366  0.00  0.00    +0.000 C 
ATOM     27  O   UNL     1     -33.322  -3.936  -3.276  0.00  0.00    +0.000 OA
BRANCH  19  28
ATOM     28  O   UNL     1     -30.648  -5.117  -4.812  0.00  0.00    +0.000 OA
BRANCH  28  30
ATOM     29  C   UNL     1     -30.091  -4.984  -3.392  0.00  0.00    +0.000 C 
ATOM     30  C   UNL     1     -29.900  -5.178  -3.594  0.00  0.00    +0.000 C 
ATOM     31  C   UNL     1     -29.735  -6.671  -3.312  0.00  0.00    +0.000 C 
ATOM     32  C   UNL     1     -28.503  -4.619  -3.857  0.00  0.00    +0.000 C 
ENDBRANCH  28  30
ENDBRANCH  19  28
ENDBRANCH  18  24
ENDBRANCH   1  18
TORSDOF 6
ENDMDL
MODEL 9
REMARK VINA RESULT:      -7.0      2.763      8.299
REMARK  Name = 
REMARK  6 active torsions:
REMARK  status: ('A' for Active; 'I' for Inactive)
REMARK    1  A    between atoms: C_2  and  O_5
REMARK    2  A    between atoms: O_5  and  C_6
REMARK    3  A    between atoms: C_11  and  O_12
REMARK    4  A    between atoms: O_12  and  C_13
REMARK    5  A    between atoms: C_19  and  C_20
REMARK    6  A    between atoms: C_21  and  C_22
REMARK                            x       y       z     vdW  Elec       q    Type
REMARK                         _______ _______ _______ _____ _____    ______ ____
ROOT
ATOM      1  C   UNL     1     -35.954  -6.725  -4.082  0.00  0.00    +0.000 A 
ATOM      2  C   UNL     1     -37.195  -7.190  -3.756  0.00  0.00    +0.000 A 
ATOM      3  C   UNL     1     -37.412  -8.253  -2.884  0.00  0.00    +0.000 A 
ATOM      4  O   UNL     1     -38.508  -9.067  -3.196  0.00  0.00    +0.000 OA
ATOM      5  C   UNL     1     -36.265  -8.900  -2.437  0.00  0.00    +0.000 A 
ATOM      6  C   UNL     1     -35.064  -8.201  -2.450  0.00  0.00    +0.000 A 
ATOM      7  C   UNL     1     -34.921  -7.056  -3.215  0.00  0.00    +0.000 A 
ENDROOT
BRANCH   7   8
ATOM      8  C   UNL     1     -33.726  -6.242  -3.240  0.00  0.00    +0.000 C 
ATOM      9  C   UNL     1     -32.544  -6.688  -3.636  0.00  0.00    +0.000 C 
BRANCH   9  10
ATOM     10  C   UNL     1     -31.653  -5.930  -4.500  0.00  0.00    +0.000 A 
ATOM     11  C   UNL     1     -32.161  -5.334  -5.624  0.00  0.00    +0.000 A 
ATOM     12  C   UNL     1     -31.276  -4.663  -6.452  0.00  0.00    +0.000 A 
ATOM     13  O   UNL     1     -31.754  -4.271  -7.688  0.00  0.00    +0.000 OA
ATOM     14  C   UNL     1     -30.051  -4.279  -5.966  0.00  0.00    +0.000 A 
ATOM     15  C   UNL     1     -29.637  -4.750  -4.750  0.00  0.00    +0.000 A 
ATOM     16  O   UNL     1     -28.415  -4.319  -4.252  0.00  0.00    +0.000 OA
ATOM     17  C   UNL     1     -30.401  -5.634  -4.008  0.00  0.00    +0.000 A 
ENDBRANCH   9  10
ENDBRANCH   7   8
BRANCH   1  18
ATOM     18  O   UNL     1     -35.621  -6.102  -5.300  0.00  0.00    +0.000 OA
BRANCH  18  24
ATOM     19  C   UNL     1     -37.217  -8.608  -9.635  0.00  0.00    +0.000 C 
ATOM     20  O   UNL     1     -38.100  -9.465  -9.386  0.00  0.00    +0.000 OA
ATOM     21  N   UNL     1     -36.452  -7.951  -8.619  0.00  0.00    +0.000 N 
ATOM     22  C   UNL     1     -35.622  -8.769  -7.758  0.00  0.00    +0.000 C 
ATOM     23  C   UNL     1     -35.200  -8.025  -6.500  0.00  0.00    +0.000 C 
ATOM     24  C   UNL     1     -36.338  -6.836  -6.447  0.00  0.00    +0.000 C 
ATOM     25  C   UNL     1     -35.537  -5.951  -7.588  0.00  0.00    +0.000 C 
ATOM     26  C   UNL     1     -36.232  -6.542  -8.783  0.00  0.00    +0.000 C 
ATOM     27  O   UNL     1     -37.238  -5.865  -9.158  0.00  0.00    +0.000 OA
BRANCH  19  28
ATOM     28  O   UNL     1     -36.582  -8.605 -10.882  0.00  0.00    +0.000 OA
BRANCH  28  30
ATOM     29  C   UNL     1     -37.214  -8.332 -12.249  0.00  0.00    +0.000 C 
ATOM     30  C   UNL     1     -37.225  -8.064 -12.040  0.00  0.00    +0.000 C 
ATOM     31  C   UNL     1     -38.562  -7.529 -11.530  0.00  0.00    +0.000 C 
ATOM     32  C   UNL     1     -36.419  -6.860 -12.521  0.00  0.00    +0.000 C 
ENDBRANCH  28  30
ENDBRANCH  19  28
ENDBRANCH  18  24
ENDBRANCH   1  18
TORSDOF 6
ENDMDL
MODEL 10
REMARK VINA RESULT:      -7.0      2.757      7.749
REMARK  Name = 
REMARK  6 active torsions:
REMARK  status: ('A' for Active; 'I' for Inactive)
REMARK    1  A    between atoms: C_2  and  O_5
REMARK    2  A    between atoms: O_5  and  C_6
REMARK    3  A    between atoms: C_11  and  O_12
REMARK    4  A    between atoms: O_12  and  C_13
REMARK    5  A    between atoms: C_19  and  C_20
REMARK    6  A    between atoms: C_21  and  C_22
REMARK                            x       y       z     vdW  Elec       q    Type
REMARK                         _______ _______ _______ _____ _____    ______ ____
ROOT
ATOM      1  C   UNL     1     -32.933  -5.988  -2.665  0.00  0.00    +0.000 A 
ATOM      2  C   UNL     1     -31.968  -6.759  -2.085  0.00  0.00    +0.000 A 
ATOM      3  C   UNL     1     -30.620  -6.688  -2.427  0.00  0.00    +0.000 A 
ATOM      4  O   UNL     1     -29.927  -7.904  -2.375  0.00  0.00    +0.000 OA
ATOM      5  C   UNL     1     -30.320  -5.846  -3.493  0.00  0.00    +0.000 A 
ATOM      6  C   UNL     1     -31.204  -4.816  -3.791  0.00  0.00    +0.000 A 
ATOM      7  C   UNL     1     -32.502  -4.837  -3.311  0.00  0.00    +0.000 A 
ENDROOT
BRANCH   7   8
ATOM      8  C   UNL     1     -33.464  -3.780  -3.529  0.00  0.00    +0.000 C 
ATOM      9  C   UNL     1     -33.700  -3.236  -4.713  0.00  0.00    +0.000 C 
BRANCH   9  10
ATOM     10  C   UNL     1     -35.037  -2.943  -5.204  0.00  0.00    +0.000 A 
ATOM     11  C   UNL     1     -35.400  -3.375  -6.453  0.00  0.00    +0.000 A 
ATOM     12  C   UNL     1     -36.662  -3.034  -6.910  0.00  0.00    +0.000 A 
ATOM     13  O   UNL     1     -36.926  -3.272  -8.246  0.00  0.00    +0.000 OA
ATOM     14  C   UNL     1     -37.625  -2.643  -6.014  0.00  0.00    +0.000 A 
ATOM     15  C   UNL     1     -37.267  -2.386  -4.718  0.00  0.00    +0.000 A 
ATOM     16  O   UNL     1     -38.258  -2.033  -3.813  0.00  0.00    +0.000 OA
ATOM     17  C   UNL     1     -35.954  -2.473  -4.290  0.00  0.00    +0.000 A 
ENDBRANCH   9  10
ENDBRANCH   7   8
BRANCH   1  18
ATOM     18  O   UNL     1     -34.283  -6.361  -2.809  0.00  0.00    +0.000 OA
BRANCH  18  24
ATOM     19  C   UNL     1     -36.040  -7.536  -7.621  0.00  0.00    +0.000 C 
ATOM     20  O   UNL     1     -35.959  -6.557  -8.404  0.00  0.00    +0.000 OA
ATOM     21  N   UNL     1     -35.848  -7.426  -6.207  0.00  0.00    +0.000 N 
ATOM     22  C   UNL     1     -36.747  -6.568  -5.463  0.00  0.00    +0.000 C 
ATOM     23  C   UNL     1     -36.199  -6.225  -4.086  0.00  0.00    +0.000 C 
ATOM     24  C   UNL     1     -34.596  -6.535  -4.306  0.00  0.00    +0.000 C 
ATOM     25  C   UNL     1     -34.835  -8.159  -4.123  0.00  0.00    +0.000 C 
ATOM     26  C   UNL     1     -35.078  -8.461  -5.576  0.00  0.00    +0.000 C 
ATOM     27  O   UNL     1     -34.027  -8.821  -6.191  0.00  0.00    +0.000 OA
BRANCH  19  28
ATOM     28  O   UNL     1     -36.797  -8.655  -7.982  0.00  0.00    +0.000 OA
BRANCH  28  30
ATOM     29  C   UNL     1     -36.021  -9.456  -9.032  0.00  0.00    +0.000 C 
ATOM     30  C   UNL     1     -36.298  -9.616  -8.919  0.00  0.00    +0.000 C 
ATOM     31  C   UNL     1     -36.181 -10.914  -8.121  0.00  0.00    +0.000 C 
ATOM     32  C   UNL     1     -37.365  -9.845  -9.987  0.00  0.00    +0.000 C 
ENDBRANCH  28  30
ENDBRANCH  19  28
ENDBRANCH  18  24
ENDBRANCH   1  18
TORSDOF 6
ENDMDL
