MODEL 1
REMARK VINA RESULT:      -7.7      0.000      0.000
REMARK  Name = 
REMARK  5 active torsions:
REMARK  status: ('A' for Active; 'I' for Inactive)
REMARK    1  A    between atoms: C_5  and  C_6
REMARK    2  A    between atoms: C_7  and  C_8
REMARK    3  A    between atoms: C_16  and  O_17
REMARK    4  A    between atoms: O_17  and  C_18
REMARK    5  A    between atoms: N_21  and  C_22
REMARK                            x       y       z     vdW  Elec       q    Type
REMARK                         _______ _______ _______ _____ _____    ______ ____
ROOT
ATOM      1  O   UNL     1     -23.138  12.336  -4.019  0.00  0.00    +0.000 OA
ATOM      2  C   UNL     1     -23.034  10.941  -4.026  0.00  0.00    +0.000 A 
ATOM      3  C   UNL     1     -22.474  10.267  -2.949  0.00  0.00    +0.000 A 
ATOM      4  C   UNL     1     -23.002   9.053  -2.560  0.00  0.00    +0.000 A 
ATOM      5  C   UNL     1     -24.060   8.463  -3.241  0.00  0.00    +0.000 A 
ATOM      6  C   UNL     1     -24.381   8.969  -4.472  0.00  0.00    +0.000 A 
ATOM      7  C   UNL     1     -23.794  10.157  -4.884  0.00  0.00    +0.000 A 
ENDROOT
BRANCH   5   8
ATOM      8  C   UNL     1     -24.747   7.382  -2.579  0.00  0.00    +0.000 C 
ATOM      9  C   UNL     1     -24.321   6.149  -2.469  0.00  0.00    +0.000 C 
BRANCH   9  10
ATOM     10  C   UNL     1     -24.992   5.303  -1.473  0.00  0.00    +0.000 A 
ATOM     11  C   UNL     1     -25.330   3.990  -1.720  0.00  0.00    +0.000 A 
ATOM     12  C   UNL     1     -26.457   3.381  -1.211  0.00  0.00    +0.000 A 
ATOM     13  O   UNL     1     -26.952   2.218  -1.805  0.00  0.00    +0.000 OA
ATOM     14  C   UNL     1     -27.332   4.156  -0.463  0.00  0.00    +0.000 A 
ATOM     15  C   UNL     1     -26.939   5.412  -0.025  0.00  0.00    +0.000 A 
ATOM     16  O   UNL     1     -27.848   6.131   0.740  0.00  0.00    +0.000 OA
ATOM     17  C   UNL     1     -25.793   5.976  -0.560  0.00  0.00    +0.000 A 
ENDBRANCH   9  10
ENDBRANCH   5   8
BRANCH   6  18
ATOM     18  O   UNL     1     -25.208   8.220  -5.278  0.00  0.00    +0.000 OA
BRANCH  18  19
ATOM     19  C   UNL     1     -25.771   8.644  -6.491  0.00  0.00    +0.000 C 
ATOM     20  C   UNL     1     -27.261   8.506  -6.436  0.00  0.00    +0.000 C 
ATOM     21  C   UNL     1     -27.962   8.751  -7.728  0.00  0.00    +0.000 C 
ATOM     22  N   UNL     1     -27.103   8.992  -8.851  0.00  0.00    +0.000 N 
ATOM     23  C   UNL     1     -25.709   8.558  -8.915  0.00  0.00    +0.000 C 
ATOM     24  C   UNL     1     -25.282   7.823  -7.677  0.00  0.00    +0.000 C 
BRANCH  22  25
ATOM     25  C   UNL     1     -27.745   9.083 -10.130  0.00  0.00    +0.000 A 
ATOM     26  C   UNL     1     -27.917  10.298 -10.777  0.00  0.00    +0.000 A 
ATOM     27  C   UNL     1     -28.649  10.261 -11.955  0.00  0.00    +0.000 A 
ATOM     28  N   UNL     1     -29.159   9.109 -12.447  0.00  0.00    +0.000 NA
ATOM     29  C   UNL     1     -28.657   7.941 -11.976  0.00  0.00    +0.000 A 
ATOM     30 CL   UNL     1     -29.535   6.469 -12.383  0.00  0.00    +0.000 Cl
ATOM     31  N   UNL     1     -27.919   7.950 -10.854  0.00  0.00    +0.000 NA
ENDBRANCH  22  25
ENDBRANCH  18  19
ENDBRANCH   6  18
TORSDOF 5
ENDMDL
MODEL 2
REMARK VINA RESULT:      -7.5      2.422      3.523
REMARK  Name = 
REMARK  5 active torsions:
REMARK  status: ('A' for Active; 'I' for Inactive)
REMARK    1  A    between atoms: C_5  and  C_6
REMARK    2  A    between atoms: C_7  and  C_8
REMARK    3  A    between atoms: C_16  and  O_17
REMARK    4  A    between atoms: O_17  and  C_18
REMARK    5  A    between atoms: N_21  and  C_22
REMARK                            x       y       z     vdW  Elec       q    Type
REMARK                         _______ _______ _______ _____ _____    ______ ____
ROOT
ATOM      1  O   UNL     1     -26.216  14.392  -5.754  0.00  0.00    +0.000 OA
ATOM      2  C   UNL     1     -25.201  13.454  -5.539  0.00  0.00    +0.000 A 
ATOM      3  C   UNL     1     -24.376  13.545  -4.425  0.00  0.00    +0.000 A 
ATOM      4  C   UNL     1     -23.966  12.391  -3.789  0.00  0.00    +0.000 A 
ATOM      5  C   UNL     1     -24.326  11.131  -4.254  0.00  0.00    +0.000 A 
ATOM      6  C   UNL     1     -24.855  11.050  -5.515  0.00  0.00    +0.000 A 
ATOM      7  C   UNL     1     -25.202  12.219  -6.174  0.00  0.00    +0.000 A 
ENDROOT
BRANCH   5   8
ATOM      8  C   UNL     1     -24.134  10.020  -3.356  0.00  0.00    +0.000 C 
ATOM      9  C   UNL     1     -23.013   9.372  -3.160  0.00  0.00    +0.000 C 
BRANCH   9  10
ATOM     10  C   UNL     1     -22.945   8.515  -1.968  0.00  0.00    +0.000 A 
ATOM     11  C   UNL     1     -21.830   8.452  -1.161  0.00  0.00    +0.000 A 
ATOM     12  C   UNL     1     -21.416   7.307  -0.516  0.00  0.00    +0.000 A 
ATOM     13  O   UNL     1     -20.099   7.196  -0.062  0.00  0.00    +0.000 OA
ATOM     14  C   UNL     1     -22.127   6.137  -0.748  0.00  0.00    +0.000 A 
ATOM     15  C   UNL     1     -23.358   6.194  -1.384  0.00  0.00    +0.000 A 
ATOM     16  O   UNL     1     -24.034   4.995  -1.565  0.00  0.00    +0.000 OA
ATOM     17  C   UNL     1     -23.733   7.372  -2.008  0.00  0.00    +0.000 A 
ENDBRANCH   9  10
ENDBRANCH   5   8
BRANCH   6  18
ATOM     18  O   UNL     1     -24.932   9.805  -6.098  0.00  0.00    +0.000 OA
BRANCH  18  19
ATOM     19  C   UNL     1     -25.677   9.484  -7.242  0.00  0.00    +0.000 C 
ATOM     20  C   UNL     1     -27.094   9.190  -6.859  0.00  0.00    +0.000 C 
ATOM     21  C   UNL     1     -27.944   8.656  -7.961  0.00  0.00    +0.000 C 
ATOM     22  N   UNL     1     -27.258   8.417  -9.198  0.00  0.00    +0.000 N 
ATOM     23  C   UNL     1     -25.816   8.205  -9.299  0.00  0.00    +0.000 C 
ATOM     24  C   UNL     1     -25.136   8.255  -7.962  0.00  0.00    +0.000 C 
BRANCH  22  25
ATOM     25  C   UNL     1     -28.018   7.767 -10.226  0.00  0.00    +0.000 A 
ATOM     26  C   UNL     1     -28.632   8.482 -11.244  0.00  0.00    +0.000 A 
ATOM     27  C   UNL     1     -29.425   7.744 -12.111  0.00  0.00    +0.000 A 
ATOM     28  N   UNL     1     -29.585   6.408 -11.977  0.00  0.00    +0.000 NA
ATOM     29  C   UNL     1     -28.692   5.736 -11.209  0.00  0.00    +0.000 A 
ATOM     30 CL   UNL     1     -29.088   4.072 -10.789  0.00  0.00    +0.000 Cl
ATOM     31  N   UNL     1     -27.890   6.427 -10.382  0.00  0.00    +0.000 NA
ENDBRANCH  22  25
ENDBRANCH  18  19
ENDBRANCH   6  18
TORSDOF 5
ENDMDL
MODEL 3
REMARK VINA RESULT:      -7.3     15.996     19.477
REMARK  Name = 
REMARK  5 active torsions:
REMARK  status: ('A' for Active; 'I' for Inactive)
REMARK    1  A    between atoms: C_5  and  C_6
REMARK    2  A    between atoms: C_7  and  C_8
REMARK    3  A    between atoms: C_16  and  O_17
REMARK    4  A    between atoms: O_17  and  C_18
REMARK    5  A    between atoms: N_21  and  C_22
REMARK                            x       y       z     vdW  Elec       q    Type
REMARK                         _______ _______ _______ _____ _____    ______ ____
ROOT
ATOM      1  O   UNL     1     -38.384  -1.402  -9.741  0.00  0.00    +0.000 OA
ATOM      2  C   UNL     1     -38.729  -2.757  -9.733  0.00  0.00    +0.000 A 
ATOM      3  C   UNL     1     -39.257  -3.361 -10.866  0.00  0.00    +0.000 A 
ATOM      4  C   UNL     1     -38.903  -4.660 -11.170  0.00  0.00    +0.000 A 
ATOM      5  C   UNL     1     -38.059  -5.399 -10.350  0.00  0.00    +0.000 A 
ATOM      6  C   UNL     1     -37.814  -4.915  -9.093  0.00  0.00    +0.000 A 
ATOM      7  C   UNL     1     -38.232  -3.631  -8.774  0.00  0.00    +0.000 A 
ENDROOT
BRANCH   5   8
ATOM      8  C   UNL     1     -37.492  -6.603 -10.905  0.00  0.00    +0.000 C 
ATOM      9  C   UNL     1     -38.157  -7.666 -11.281  0.00  0.00    +0.000 C 
BRANCH   9  10
ATOM     10  C   UNL     1     -37.440  -8.629 -12.130  0.00  0.00    +0.000 A 
ATOM     11  C   UNL     1     -36.479  -8.246 -13.040  0.00  0.00    +0.000 A 
ATOM     12  C   UNL     1     -36.275  -8.877 -14.248  0.00  0.00    +0.000 A 
ATOM     13  O   UNL     1     -35.594  -8.219 -15.275  0.00  0.00    +0.000 OA
ATOM     14  C   UNL     1     -37.131  -9.914 -14.592  0.00  0.00    +0.000 A 
ATOM     15  C   UNL     1     -37.973 -10.460 -13.634  0.00  0.00    +0.000 A 
ATOM     16  O   UNL     1     -38.788 -11.512 -14.030  0.00  0.00    +0.000 OA
ATOM     17  C   UNL     1     -38.136  -9.792 -12.432  0.00  0.00    +0.000 A 
ENDBRANCH   9  10
ENDBRANCH   5   8
BRANCH   6  18
ATOM     18  O   UNL     1     -37.238  -5.767  -8.178  0.00  0.00    +0.000 OA
BRANCH  18  19
ATOM     19  C   UNL     1     -35.929  -5.672  -7.684  0.00  0.00    +0.000 C 
ATOM     20  C   UNL     1     -35.747  -6.623  -6.542  0.00  0.00    +0.000 C 
ATOM     21  C   UNL     1     -34.454  -6.487  -5.812  0.00  0.00    +0.000 C 
ATOM     22  N   UNL     1     -33.617  -5.409  -6.252  0.00  0.00    +0.000 N 
ATOM     23  C   UNL     1     -34.114  -4.233  -6.962  0.00  0.00    +0.000 C 
ATOM     24  C   UNL     1     -35.600  -4.277  -7.170  0.00  0.00    +0.000 C 
BRANCH  22  25
ATOM     25  C   UNL     1     -32.439  -5.165  -5.471  0.00  0.00    +0.000 A 
ATOM     26  C   UNL     1     -31.186  -5.048  -6.055  0.00  0.00    +0.000 A 
ATOM     27  C   UNL     1     -30.118  -4.922  -5.179  0.00  0.00    +0.000 A 
ATOM     28  N   UNL     1     -30.287  -4.906  -3.837  0.00  0.00    +0.000 NA
ATOM     29  C   UNL     1     -31.531  -4.661  -3.358  0.00  0.00    +0.000 A 
ATOM     30 CL   UNL     1     -31.800  -4.954  -1.642  0.00  0.00    +0.000 Cl
ATOM     31  N   UNL     1     -32.582  -4.746  -4.190  0.00  0.00    +0.000 NA
ENDBRANCH  22  25
ENDBRANCH  18  19
ENDBRANCH   6  18
TORSDOF 5
ENDMDL
MODEL 4
REMARK VINA RESULT:      -7.0     25.926     28.146
REMARK  Name = 
REMARK  5 active torsions:
REMARK  status: ('A' for Active; 'I' for Inactive)
REMARK    1  A    between atoms: C_5  and  C_6
REMARK    2  A    between atoms: C_7  and  C_8
REMARK    3  A    between atoms: C_16  and  O_17
REMARK    4  A    between atoms: O_17  and  C_18
REMARK    5  A    between atoms: N_21  and  C_22
REMARK                            x       y       z     vdW  Elec       q    Type
REMARK                         _______ _______ _______ _____ _____    ______ ____
ROOT
ATOM      1  O   UNL     1       1.059   1.939 -15.618  0.00  0.00    +0.000 OA
ATOM      2  C   UNL     1       1.252   2.018 -14.236  0.00  0.00    +0.000 A 
ATOM      3  C   UNL     1       1.880   3.120 -13.669  0.00  0.00    +0.000 A 
ATOM      4  C   UNL     1       1.440   3.599 -12.453  0.00  0.00    +0.000 A 
ATOM      5  C   UNL     1       0.405   2.987 -11.755  0.00  0.00    +0.000 A 
ATOM      6  C   UNL     1       0.024   1.735 -12.159  0.00  0.00    +0.000 A 
ATOM      7  C   UNL     1       0.524   1.233 -13.351  0.00  0.00    +0.000 A 
ENDROOT
BRANCH   5   8
ATOM      8  C   UNL     1      -0.195   3.735 -10.679  0.00  0.00    +0.000 C 
ATOM      9  C   UNL     1       0.345   3.975  -9.511  0.00  0.00    +0.000 C 
BRANCH   9  10
ATOM     10  C   UNL     1      -0.274   5.033  -8.700  0.00  0.00    +0.000 A 
ATOM     11  C   UNL     1      -1.468   4.857  -8.035  0.00  0.00    +0.000 A 
ATOM     12  C   UNL     1      -2.399   5.857  -7.857  0.00  0.00    +0.000 A 
ATOM     13  O   UNL     1      -3.723   5.534  -7.551  0.00  0.00    +0.000 OA
ATOM     14  C   UNL     1      -2.147   7.091  -8.440  0.00  0.00    +0.000 A 
ATOM     15  C   UNL     1      -0.884   7.372  -8.941  0.00  0.00    +0.000 A 
ATOM     16  O   UNL     1      -0.684   8.632  -9.489  0.00  0.00    +0.000 OA
ATOM     17  C   UNL     1       0.020   6.333  -9.090  0.00  0.00    +0.000 A 
ENDBRANCH   9  10
ENDBRANCH   5   8
BRANCH   6  18
ATOM     18  O   UNL     1      -0.772   1.002 -11.309  0.00  0.00    +0.000 OA
BRANCH  18  19
ATOM     19  C   UNL     1      -0.340  -0.047 -10.484  0.00  0.00    +0.000 C 
ATOM     20  C   UNL     1      -0.963  -1.333 -10.929  0.00  0.00    +0.000 C 
ATOM     21  C   UNL     1      -0.727  -2.492 -10.021  0.00  0.00    +0.000 C 
ATOM     22  N   UNL     1      -0.017  -2.184  -8.813  0.00  0.00    +0.000 N 
ATOM     23  C   UNL     1       0.046  -0.848  -8.226  0.00  0.00    +0.000 C 
ATOM     24  C   UNL     1      -0.723   0.164  -9.025  0.00  0.00    +0.000 C 
BRANCH  22  25
ATOM     25  C   UNL     1       0.092  -3.248  -7.857  0.00  0.00    +0.000 A 
ATOM     26  C   UNL     1       1.024  -3.214  -6.830  0.00  0.00    +0.000 A 
ATOM     27  C   UNL     1       1.099  -4.353  -6.040  0.00  0.00    +0.000 A 
ATOM     28  N   UNL     1       0.308  -5.428  -6.255  0.00  0.00    +0.000 NA
ATOM     29  C   UNL     1      -0.800  -5.259  -7.018  0.00  0.00    +0.000 A 
ATOM     30 CL   UNL     1      -1.640  -6.714  -7.545  0.00  0.00    +0.000 Cl
ATOM     31  N   UNL     1      -0.914  -4.151  -7.769  0.00  0.00    +0.000 NA
ENDBRANCH  22  25
ENDBRANCH  18  19
ENDBRANCH   6  18
TORSDOF 5
ENDMDL
MODEL 5
REMARK VINA RESULT:      -6.9      1.263      1.705
REMARK  Name = 
REMARK  5 active torsions:
REMARK  status: ('A' for Active; 'I' for Inactive)
REMARK    1  A    between atoms: C_5  and  C_6
REMARK    2  A    between atoms: C_7  and  C_8
REMARK    3  A    between atoms: C_16  and  O_17
REMARK    4  A    between atoms: O_17  and  C_18
REMARK    5  A    between atoms: N_21  and  C_22
REMARK                            x       y       z     vdW  Elec       q    Type
REMARK                         _______ _______ _______ _____ _____    ______ ____
ROOT
ATOM      1  O   UNL     1     -23.487  12.311  -4.286  0.00  0.00    +0.000 OA
ATOM      2  C   UNL     1     -23.103  10.991  -4.030  0.00  0.00    +0.000 A 
ATOM      3  C   UNL     1     -22.810  10.576  -2.738  0.00  0.00    +0.000 A 
ATOM      4  C   UNL     1     -23.178   9.309  -2.333  0.00  0.00    +0.000 A 
ATOM      5  C   UNL     1     -23.803   8.417  -3.196  0.00  0.00    +0.000 A 
ATOM      6  C   UNL     1     -23.790   8.715  -4.532  0.00  0.00    +0.000 A 
ATOM      7  C   UNL     1     -23.356   9.969  -4.936  0.00  0.00    +0.000 A 
ENDROOT
BRANCH   5   8
ATOM      8  C   UNL     1     -24.435   7.264  -2.605  0.00  0.00    +0.000 C 
ATOM      9  C   UNL     1     -23.829   6.183  -2.182  0.00  0.00    +0.000 C 
BRANCH   9  10
ATOM     10  C   UNL     1     -24.601   5.289  -1.308  0.00  0.00    +0.000 A 
ATOM     11  C   UNL     1     -25.171   4.119  -1.760  0.00  0.00    +0.000 A 
ATOM     12  C   UNL     1     -26.368   3.621  -1.292  0.00  0.00    +0.000 A 
ATOM     13  O   UNL     1     -27.080   2.686  -2.047  0.00  0.00    +0.000 OA
ATOM     14  C   UNL     1     -27.068   4.377  -0.362  0.00  0.00    +0.000 A 
ATOM     15  C   UNL     1     -26.446   5.448   0.263  0.00  0.00    +0.000 A 
ATOM     16  O   UNL     1     -27.188   6.152   1.202  0.00  0.00    +0.000 OA
ATOM     17  C   UNL     1     -25.239   5.905  -0.239  0.00  0.00    +0.000 A 
ENDBRANCH   9  10
ENDBRANCH   5   8
BRANCH   6  18
ATOM     18  O   UNL     1     -24.129   7.716  -5.416  0.00  0.00    +0.000 OA
BRANCH  18  19
ATOM     19  C   UNL     1     -25.173   7.770  -6.351  0.00  0.00    +0.000 C 
ATOM     20  C   UNL     1     -24.638   8.184  -7.686  0.00  0.00    +0.000 C 
ATOM     21  C   UNL     1     -25.676   8.457  -8.721  0.00  0.00    +0.000 C 
ATOM     22  N   UNL     1     -27.032   8.372  -8.261  0.00  0.00    +0.000 N 
ATOM     23  C   UNL     1     -27.425   8.517  -6.861  0.00  0.00    +0.000 C 
ATOM     24  C   UNL     1     -26.251   8.774  -5.962  0.00  0.00    +0.000 C 
BRANCH  22  25
ATOM     25  C   UNL     1     -28.042   8.774  -9.196  0.00  0.00    +0.000 A 
ATOM     26  C   UNL     1     -29.307   8.205  -9.194  0.00  0.00    +0.000 A 
ATOM     27  C   UNL     1     -30.154   8.605 -10.218  0.00  0.00    +0.000 A 
ATOM     28  N   UNL     1     -29.772   9.500 -11.157  0.00  0.00    +0.000 NA
ATOM     29  C   UNL     1     -28.688  10.270 -10.896  0.00  0.00    +0.000 A 
ATOM     30 CL   UNL     1     -28.020  11.196 -12.237  0.00  0.00    +0.000 Cl
ATOM     31  N   UNL     1     -27.866   9.925  -9.890  0.00  0.00    +0.000 NA
ENDBRANCH  22  25
ENDBRANCH  18  19
ENDBRANCH   6  18
TORSDOF 5
ENDMDL
MODEL 6
REMARK VINA RESULT:      -6.9     13.562     17.044
REMARK  Name = 
REMARK  5 active torsions:
REMARK  status: ('A' for Active; 'I' for Inactive)
REMARK    1  A    between atoms: C_5  and  C_6
REMARK    2  A    between atoms: C_7  and  C_8
REMARK    3  A    between atoms: C_16  and  O_17
REMARK    4  A    between atoms: O_17  and  C_18
REMARK    5  A    between atoms: N_21  and  C_22
REMARK                            x       y       z     vdW  Elec       q    Type
REMARK                         _______ _______ _______ _____ _____    ______ ____
ROOT
ATOM      1  O   UNL     1     -36.000 -12.028  -4.197  0.00  0.00    +0.000 OA
ATOM      2  C   UNL     1     -36.185 -10.646  -4.083  0.00  0.00    +0.000 A 
ATOM      3  C   UNL     1     -36.199 -10.033  -2.837  0.00  0.00    +0.000 A 
ATOM      4  C   UNL     1     -35.629  -8.785  -2.690  0.00  0.00    +0.000 A 
ATOM      5  C   UNL     1     -35.071  -8.103  -3.765  0.00  0.00    +0.000 A 
ATOM      6  C   UNL     1     -35.352  -8.567  -5.023  0.00  0.00    +0.000 A 
ATOM      7  C   UNL     1     -35.986  -9.793  -5.160  0.00  0.00    +0.000 A 
ENDROOT
BRANCH   5   8
ATOM      8  C   UNL     1     -34.222  -6.979  -3.461  0.00  0.00    +0.000 C 
ATOM      9  C   UNL     1     -32.913  -6.970  -3.488  0.00  0.00    +0.000 C 
BRANCH   9  10
ATOM     10  C   UNL     1     -32.260  -5.653  -3.487  0.00  0.00    +0.000 A 
ATOM     11  C   UNL     1     -32.945  -4.484  -3.733  0.00  0.00    +0.000 A 
ATOM     12  C   UNL     1     -32.400  -3.403  -4.392  0.00  0.00    +0.000 A 
ATOM     13  O   UNL     1     -33.235  -2.437  -4.960  0.00  0.00    +0.000 OA
ATOM     14  C   UNL     1     -31.112  -3.528  -4.892  0.00  0.00    +0.000 A 
ATOM     15  C   UNL     1     -30.321  -4.597  -4.499  0.00  0.00    +0.000 A 
ATOM     16  O   UNL     1     -29.032  -4.656  -5.012  0.00  0.00    +0.000 OA
ATOM     17  C   UNL     1     -30.914  -5.655  -3.830  0.00  0.00    +0.000 A 
ENDBRANCH   9  10
ENDBRANCH   5   8
BRANCH   6  18
ATOM     18  O   UNL     1     -35.066  -7.743  -6.088  0.00  0.00    +0.000 OA
BRANCH  18  19
ATOM     19  C   UNL     1     -35.797  -6.606  -6.461  0.00  0.00    +0.000 C 
ATOM     20  C   UNL     1     -36.454  -6.836  -7.786  0.00  0.00    +0.000 C 
ATOM     21  C   UNL     1     -37.110  -5.635  -8.378  0.00  0.00    +0.000 C 
ATOM     22  N   UNL     1     -36.937  -4.419  -7.638  0.00  0.00    +0.000 N 
ATOM     23  C   UNL     1     -35.843  -4.191  -6.696  0.00  0.00    +0.000 C 
ATOM     24  C   UNL     1     -34.918  -5.369  -6.599  0.00  0.00    +0.000 C 
BRANCH  22  25
ATOM     25  C   UNL     1     -37.430  -3.226  -8.261  0.00  0.00    +0.000 A 
ATOM     26  C   UNL     1     -38.045  -3.250  -9.504  0.00  0.00    +0.000 A 
ATOM     27  C   UNL     1     -38.379  -2.015 -10.041  0.00  0.00    +0.000 A 
ATOM     28  N   UNL     1     -38.127  -0.858  -9.389  0.00  0.00    +0.000 NA
ATOM     29  C   UNL     1     -37.869  -0.921  -8.060  0.00  0.00    +0.000 A 
ATOM     30 CL   UNL     1     -37.239   0.535  -7.296  0.00  0.00    +0.000 Cl
ATOM     31  N   UNL     1     -37.572  -2.109  -7.506  0.00  0.00    +0.000 NA
ENDBRANCH  22  25
ENDBRANCH  18  19
ENDBRANCH   6  18
TORSDOF 5
ENDMDL
MODEL 7
REMARK VINA RESULT:      -6.8      7.100     10.486
REMARK  Name = 
REMARK  5 active torsions:
REMARK  status: ('A' for Active; 'I' for Inactive)
REMARK    1  A    between atoms: C_5  and  C_6
REMARK    2  A    between atoms: C_7  and  C_8
REMARK    3  A    between atoms: C_16  and  O_17
REMARK    4  A    between atoms: O_17  and  C_18
REMARK    5  A    between atoms: N_21  and  C_22
REMARK                            x       y       z     vdW  Elec       q    Type
REMARK                         _______ _______ _______ _____ _____    ______ ____
ROOT
ATOM      1  O   UNL     1     -31.142   7.588  -1.911  0.00  0.00    +0.000 OA
ATOM      2  C   UNL     1     -30.077   6.781  -2.323  0.00  0.00    +0.000 A 
ATOM      3  C   UNL     1     -29.380   7.068  -3.490  0.00  0.00    +0.000 A 
ATOM      4  C   UNL     1     -28.016   6.864  -3.531  0.00  0.00    +0.000 A 
ATOM      5  C   UNL     1     -27.320   6.342  -2.448  0.00  0.00    +0.000 A 
ATOM      6  C   UNL     1     -28.052   5.767  -1.443  0.00  0.00    +0.000 A 
ATOM      7  C   UNL     1     -29.430   5.921  -1.445  0.00  0.00    +0.000 A 
ENDROOT
BRANCH   5   8
ATOM      8  C   UNL     1     -25.884   6.472  -2.464  0.00  0.00    +0.000 C 
ATOM      9  C   UNL     1     -25.211   7.594  -2.494  0.00  0.00    +0.000 C 
BRANCH   9  10
ATOM     10  C   UNL     1     -23.782   7.518  -2.157  0.00  0.00    +0.000 A 
ATOM     11  C   UNL     1     -23.116   6.322  -2.010  0.00  0.00    +0.000 A 
ATOM     12  C   UNL     1     -22.094   6.121  -1.107  0.00  0.00    +0.000 A 
ATOM     13  O   UNL     1     -21.745   4.824  -0.722  0.00  0.00    +0.000 OA
ATOM     14  C   UNL     1     -21.767   7.166  -0.254  0.00  0.00    +0.000 A 
ATOM     15  C   UNL     1     -22.266   8.437  -0.497  0.00  0.00    +0.000 A 
ATOM     16  O   UNL     1     -21.884   9.446   0.376  0.00  0.00    +0.000 OA
ATOM     17  C   UNL     1     -23.286   8.587  -1.422  0.00  0.00    +0.000 A 
ENDBRANCH   9  10
ENDBRANCH   5   8
BRANCH   6  18
ATOM     18  O   UNL     1     -27.383   4.989  -0.526  0.00  0.00    +0.000 OA
BRANCH  18  19
ATOM     19  C   UNL     1     -27.029   5.379   0.774  0.00  0.00    +0.000 C 
ATOM     20  C   UNL     1     -27.973   6.434   1.263  0.00  0.00    +0.000 C 
ATOM     21  C   UNL     1     -27.594   7.062   2.561  0.00  0.00    +0.000 C 
ATOM     22  N   UNL     1     -26.338   6.630   3.103  0.00  0.00    +0.000 N 
ATOM     23  C   UNL     1     -25.265   6.046   2.301  0.00  0.00    +0.000 C 
ATOM     24  C   UNL     1     -25.622   5.959   0.846  0.00  0.00    +0.000 C 
BRANCH  22  25
ATOM     25  C   UNL     1     -25.882   7.326   4.271  0.00  0.00    +0.000 A 
ATOM     26  C   UNL     1     -25.077   8.452   4.183  0.00  0.00    +0.000 A 
ATOM     27  C   UNL     1     -24.618   8.966   5.387  0.00  0.00    +0.000 A 
ATOM     28  N   UNL     1     -24.941   8.407   6.576  0.00  0.00    +0.000 NA
ATOM     29  C   UNL     1     -25.997   7.558   6.611  0.00  0.00    +0.000 A 
ATOM     30 CL   UNL     1     -26.210   6.604   8.077  0.00  0.00    +0.000 Cl
ATOM     31  N   UNL     1     -26.483   7.068   5.458  0.00  0.00    +0.000 NA
ENDBRANCH  22  25
ENDBRANCH  18  19
ENDBRANCH   6  18
TORSDOF 5
ENDMDL
MODEL 8
REMARK VINA RESULT:      -6.8      2.456      3.472
REMARK  Name = 
REMARK  5 active torsions:
REMARK  status: ('A' for Active; 'I' for Inactive)
REMARK    1  A    between atoms: C_5  and  C_6
REMARK    2  A    between atoms: C_7  and  C_8
REMARK    3  A    between atoms: C_16  and  O_17
REMARK    4  A    between atoms: O_17  and  C_18
REMARK    5  A    between atoms: N_21  and  C_22
REMARK                            x       y       z     vdW  Elec       q    Type
REMARK                         _______ _______ _______ _____ _____    ______ ____
ROOT
ATOM      1  O   UNL     1     -27.026  14.210  -5.747  0.00  0.00    +0.000 OA
ATOM      2  C   UNL     1     -25.882  13.419  -5.597  0.00  0.00    +0.000 A 
ATOM      3  C   UNL     1     -25.106  13.504  -4.449  0.00  0.00    +0.000 A 
ATOM      4  C   UNL     1     -24.536  12.360  -3.930  0.00  0.00    +0.000 A 
ATOM      5  C   UNL     1     -24.684  11.123  -4.546  0.00  0.00    +0.000 A 
ATOM      6  C   UNL     1     -25.166  11.109  -5.828  0.00  0.00    +0.000 A 
ATOM      7  C   UNL     1     -25.677  12.281  -6.366  0.00  0.00    +0.000 A 
ENDROOT
BRANCH   5   8
ATOM      8  C   UNL     1     -24.341   9.957  -3.772  0.00  0.00    +0.000 C 
ATOM      9  C   UNL     1     -23.151   9.421  -3.670  0.00  0.00    +0.000 C 
BRANCH   9  10
ATOM     10  C   UNL     1     -22.948   8.464  -2.573  0.00  0.00    +0.000 A 
ATOM     11  C   UNL     1     -23.726   7.338  -2.416  0.00  0.00    +0.000 A 
ATOM     12  C   UNL     1     -24.070   6.811  -1.190  0.00  0.00    +0.000 A 
ATOM     13  O   UNL     1     -25.160   5.944  -1.081  0.00  0.00    +0.000 OA
ATOM     14  C   UNL     1     -23.663   7.494  -0.052  0.00  0.00    +0.000 A 
ATOM     15  C   UNL     1     -22.721   8.506  -0.155  0.00  0.00    +0.000 A 
ATOM     16  O   UNL     1     -22.335   9.136   1.020  0.00  0.00    +0.000 OA
ATOM     17  C   UNL     1     -22.402   8.994  -1.411  0.00  0.00    +0.000 A 
ENDBRANCH   9  10
ENDBRANCH   5   8
BRANCH   6  18
ATOM     18  O   UNL     1     -25.035   9.944  -6.550  0.00  0.00    +0.000 OA
BRANCH  18  19
ATOM     19  C   UNL     1     -25.887   9.520  -7.580  0.00  0.00    +0.000 C 
ATOM     20  C   UNL     1     -27.234   9.184  -7.019  0.00  0.00    +0.000 C 
ATOM     21  C   UNL     1     -28.174   8.547  -7.985  0.00  0.00    +0.000 C 
ATOM     22  N   UNL     1     -27.622   8.267  -9.279  0.00  0.00    +0.000 N 
ATOM     23  C   UNL     1     -26.191   8.117  -9.535  0.00  0.00    +0.000 C 
ATOM     24  C   UNL     1     -25.367   8.278  -8.291  0.00  0.00    +0.000 C 
BRANCH  22  25
ATOM     25  C   UNL     1     -28.458   7.522 -10.174  0.00  0.00    +0.000 A 
ATOM     26  C   UNL     1     -27.926   6.726 -11.179  0.00  0.00    +0.000 A 
ATOM     27  C   UNL     1     -28.844   6.145 -12.043  0.00  0.00    +0.000 A 
ATOM     28  N   UNL     1     -30.176   6.337 -11.910  0.00  0.00    +0.000 NA
ATOM     29  C   UNL     1     -30.634   6.810 -10.725  0.00  0.00    +0.000 A 
ATOM     30 CL   UNL     1     -32.310   7.349 -10.670  0.00  0.00    +0.000 Cl
ATOM     31  N   UNL     1     -29.764   7.350  -9.855  0.00  0.00    +0.000 NA
ENDBRANCH  22  25
ENDBRANCH  18  19
ENDBRANCH   6  18
TORSDOF 5
ENDMDL
MODEL 9
REMARK VINA RESULT:      -6.8     17.202     21.155
REMARK  Name = 
REMARK  5 active torsions:
REMARK  status: ('A' for Active; 'I' for Inactive)
REMARK    1  A    between atoms: C_5  and  C_6
REMARK    2  A    between atoms: C_7  and  C_8
REMARK    3  A    between atoms: C_16  and  O_17
REMARK    4  A    between atoms: O_17  and  C_18
REMARK    5  A    between atoms: N_21  and  C_22
REMARK                            x       y       z     vdW  Elec       q    Type
REMARK                         _______ _______ _______ _____ _____    ______ ____
ROOT
ATOM      1  O   UNL     1     -38.943 -13.424  -6.665  0.00  0.00    +0.000 OA
ATOM      2  C   UNL     1     -37.762 -12.743  -6.975  0.00  0.00    +0.000 A 
ATOM      3  C   UNL     1     -36.734 -13.380  -7.658  0.00  0.00    +0.000 A 
ATOM      4  C   UNL     1     -36.002 -12.675  -8.591  0.00  0.00    +0.000 A 
ATOM      5  C   UNL     1     -36.238 -11.328  -8.842  0.00  0.00    +0.000 A 
ATOM      6  C   UNL     1     -37.016 -10.645  -7.946  0.00  0.00    +0.000 A 
ATOM      7  C   UNL     1     -37.697 -11.355  -6.969  0.00  0.00    +0.000 A 
ENDROOT
BRANCH   5   8
ATOM      8  C   UNL     1     -35.662 -10.772 -10.041  0.00  0.00    +0.000 C 
ATOM      9  C   UNL     1     -36.146 -10.881 -11.252  0.00  0.00    +0.000 C 
BRANCH   9  10
ATOM     10  C   UNL     1     -35.607  -9.962 -12.265  0.00  0.00    +0.000 A 
ATOM     11  C   UNL     1     -35.670  -8.592 -12.134  0.00  0.00    +0.000 A 
ATOM     12  C   UNL     1     -35.835  -7.729 -13.196  0.00  0.00    +0.000 A 
ATOM     13  O   UNL     1     -36.291  -6.427 -12.975  0.00  0.00    +0.000 OA
ATOM     14  C   UNL     1     -36.016  -8.278 -14.458  0.00  0.00    +0.000 A 
ATOM     15  C   UNL     1     -35.762  -9.626 -14.666  0.00  0.00    +0.000 A 
ATOM     16  O   UNL     1     -35.936 -10.113 -15.954  0.00  0.00    +0.000 OA
ATOM     17  C   UNL     1     -35.593 -10.450 -13.565  0.00  0.00    +0.000 A 
ENDBRANCH   9  10
ENDBRANCH   5   8
BRANCH   6  18
ATOM     18  O   UNL     1     -37.010  -9.270  -8.010  0.00  0.00    +0.000 OA
BRANCH  18  19
ATOM     19  C   UNL     1     -36.432  -8.410  -7.066  0.00  0.00    +0.000 C 
ATOM     20  C   UNL     1     -36.182  -7.069  -7.684  0.00  0.00    +0.000 C 
ATOM     21  C   UNL     1     -35.403  -6.122  -6.837  0.00  0.00    +0.000 C 
ATOM     22  N   UNL     1     -34.929  -6.664  -5.596  0.00  0.00    +0.000 N 
ATOM     23  C   UNL     1     -34.744  -8.092  -5.351  0.00  0.00    +0.000 C 
ATOM     24  C   UNL     1     -35.096  -8.927  -6.548  0.00  0.00    +0.000 C 
BRANCH  22  25
ATOM     25  C   UNL     1     -34.054  -5.822  -4.833  0.00  0.00    +0.000 A 
ATOM     26  C   UNL     1     -33.880  -5.995  -3.468  0.00  0.00    +0.000 A 
ATOM     27  C   UNL     1     -33.091  -5.048  -2.831  0.00  0.00    +0.000 A 
ATOM     28  N   UNL     1     -32.520  -4.021  -3.502  0.00  0.00    +0.000 NA
ATOM     29  C   UNL     1     -32.430  -4.117  -4.851  0.00  0.00    +0.000 A 
ATOM     30 CL   UNL     1     -31.981  -2.658  -5.730  0.00  0.00    +0.000 Cl
ATOM     31  N   UNL     1     -33.160  -5.045  -5.492  0.00  0.00    +0.000 NA
ENDBRANCH  22  25
ENDBRANCH  18  19
ENDBRANCH   6  18
TORSDOF 5
ENDMDL
MODEL 10
REMARK VINA RESULT:      -6.7     16.153     19.677
REMARK  Name = 
REMARK  5 active torsions:
REMARK  status: ('A' for Active; 'I' for Inactive)
REMARK    1  A    between atoms: C_5  and  C_6
REMARK    2  A    between atoms: C_7  and  C_8
REMARK    3  A    between atoms: C_16  and  O_17
REMARK    4  A    between atoms: O_17  and  C_18
REMARK    5  A    between atoms: N_21  and  C_22
REMARK                            x       y       z     vdW  Elec       q    Type
REMARK                         _______ _______ _______ _____ _____    ______ ____
ROOT
ATOM      1  O   UNL     1     -38.765  -1.581 -10.039  0.00  0.00    +0.000 OA
ATOM      2  C   UNL     1     -39.065  -2.849 -10.545  0.00  0.00    +0.000 A 
ATOM      3  C   UNL     1     -39.145  -3.065 -11.915  0.00  0.00    +0.000 A 
ATOM      4  C   UNL     1     -38.682  -4.253 -12.442  0.00  0.00    +0.000 A 
ATOM      5  C   UNL     1     -38.169  -5.262 -11.635  0.00  0.00    +0.000 A 
ATOM      6  C   UNL     1     -38.395  -5.170 -10.287  0.00  0.00    +0.000 A 
ATOM      7  C   UNL     1     -38.924  -3.995  -9.773  0.00  0.00    +0.000 A 
ENDROOT
BRANCH   5   8
ATOM      8  C   UNL     1     -37.420  -6.307 -12.285  0.00  0.00    +0.000 C 
ATOM      9  C   UNL     1     -36.118  -6.442 -12.280  0.00  0.00    +0.000 C 
BRANCH   9  10
ATOM     10  C   UNL     1     -35.585  -7.746 -12.700  0.00  0.00    +0.000 A 
ATOM     11  C   UNL     1     -35.628  -8.180 -14.006  0.00  0.00    +0.000 A 
ATOM     12  C   UNL     1     -35.801  -9.499 -14.368  0.00  0.00    +0.000 A 
ATOM     13  O   UNL     1     -36.236  -9.819 -15.656  0.00  0.00    +0.000 OA
ATOM     14  C   UNL     1     -36.010 -10.428 -13.359  0.00  0.00    +0.000 A 
ATOM     15  C   UNL     1     -35.777 -10.075 -12.037  0.00  0.00    +0.000 A 
ATOM     16  O   UNL     1     -35.979 -11.053 -11.074  0.00  0.00    +0.000 OA
ATOM     17  C   UNL     1     -35.599  -8.737 -11.727  0.00  0.00    +0.000 A 
ENDBRANCH   9  10
ENDBRANCH   5   8
BRANCH   6  18
ATOM     18  O   UNL     1     -38.165  -6.290  -9.521  0.00  0.00    +0.000 OA
BRANCH  18  19
ATOM     19  C   UNL     1     -37.396  -6.335  -8.349  0.00  0.00    +0.000 C 
ATOM     20  C   UNL     1     -37.270  -4.959  -7.771  0.00  0.00    +0.000 C 
ATOM     21  C   UNL     1     -36.323  -4.845  -6.625  0.00  0.00    +0.000 C 
ATOM     22  N   UNL     1     -35.607  -6.045  -6.304  0.00  0.00    +0.000 N 
ATOM     23  C   UNL     1     -35.387  -7.137  -7.251  0.00  0.00    +0.000 C 
ATOM     24  C   UNL     1     -35.986  -6.855  -8.597  0.00  0.00    +0.000 C 
BRANCH  22  25
ATOM     25  C   UNL     1     -34.585  -5.923  -5.305  0.00  0.00    +0.000 A 
ATOM     26  C   UNL     1     -34.881  -5.949  -3.950  0.00  0.00    +0.000 A 
ATOM     27  C   UNL     1     -33.817  -5.712  -3.092  0.00  0.00    +0.000 A 
ATOM     28  N   UNL     1     -32.566  -5.477  -3.547  0.00  0.00    +0.000 NA
ATOM     29  C   UNL     1     -32.282  -5.821  -4.827  0.00  0.00    +0.000 A 
ATOM     30 CL   UNL     1     -30.765  -5.228  -5.498  0.00  0.00    +0.000 Cl
ATOM     31  N   UNL     1     -33.291  -6.085  -5.674  0.00  0.00    +0.000 NA
ENDBRANCH  22  25
ENDBRANCH  18  19
ENDBRANCH   6  18
TORSDOF 5
ENDMDL
