MODEL 1
REMARK VINA RESULT:      -7.2      0.000      0.000
REMARK  Name = 
REMARK  7 active torsions:
REMARK  status: ('A' for Active; 'I' for Inactive)
REMARK    1  A    between atoms: C_5  and  C_6
REMARK    2  A    between atoms: C_7  and  C_8
REMARK    3  A    between atoms: C_16  and  O_17
REMARK    4  A    between atoms: O_17  and  C_18
REMARK    5  A    between atoms: C_18  and  C_19
REMARK    6  A    between atoms: N_21  and  C_22
REMARK    7  A    between atoms: C_22  and  C_23
REMARK                            x       y       z     vdW  Elec       q    Type
REMARK                         _______ _______ _______ _____ _____    ______ ____
ROOT
ATOM      1  O   UNL     1     -20.353  -8.540  10.580  0.00  0.00    +0.000 OA
ATOM      2  C   UNL     1     -20.275  -7.450   9.869  0.00  0.00    +0.000 A 
ATOM      3  C   UNL     1     -19.052  -6.797   9.835  0.00  0.00    +0.000 A 
ATOM      4  C   UNL     1     -18.977  -5.545   9.237  0.00  0.00    +0.000 A 
ATOM      5  C   UNL     1     -20.113  -4.877   8.797  0.00  0.00    +0.000 A 
ATOM      6  C   UNL     1     -21.316  -5.575   8.802  0.00  0.00    +0.000 A 
ATOM      7  C   UNL     1     -21.319  -6.923   9.141  0.00  0.00    +0.000 A 
ENDROOT
BRANCH   5   8
ATOM      8  C   UNL     1     -20.081  -3.415   8.941  0.00  0.00    +0.000 C 
ATOM      9  C   UNL     1     -18.922  -2.829   8.738  0.00  0.00    +0.000 C 
BRANCH   9  10
ATOM     10  C   UNL     1     -18.777  -1.501   8.142  0.00  0.00    +0.000 A 
ATOM     11  C   UNL     1     -19.958  -0.794   7.954  0.00  0.00    +0.000 A 
ATOM     12  C   UNL     1     -19.986   0.278   7.102  0.00  0.00    +0.000 A 
ATOM     13  O   UNL     1     -21.218   0.847   6.765  0.00  0.00    +0.000 OA
ATOM     14  C   UNL     1     -18.958   0.479   6.212  0.00  0.00    +0.000 A 
ATOM     15  C   UNL     1     -17.840  -0.310   6.263  0.00  0.00    +0.000 A 
ATOM     16  O   UNL     1     -16.832  -0.122   5.340  0.00  0.00    +0.000 OA
ATOM     17  C   UNL     1     -17.754  -1.251   7.259  0.00  0.00    +0.000 A 
ENDBRANCH   9  10
ENDBRANCH   5   8
BRANCH   6  18
ATOM     18  O   UNL     1     -22.456  -4.811   8.723  0.00  0.00    +0.000 OA
BRANCH  18  19
ATOM     19  C   UNL     1     -23.738  -5.167   9.106  0.00  0.00    +0.000 C 
BRANCH  19  20
ATOM     20  C   UNL     1     -24.743  -4.884   7.835  0.00  0.00    +0.000 C 
ATOM     21  C   UNL     1     -25.158  -3.395   8.408  0.00  0.00    +0.000 C 
ATOM     22  N   UNL     1     -26.080  -3.024   7.358  0.00  0.00    +0.000 NA
ATOM     23  C   UNL     1     -27.167  -3.913   7.194  0.00  0.00    +0.000 C 
ATOM     24  C   UNL     1     -27.036  -5.266   7.779  0.00  0.00    +0.000 C 
ATOM     25  O   UNL     1     -25.928  -5.531   8.522  0.00  0.00    +0.000 OA
BRANCH  22  26
ATOM     26  C   UNL     1     -25.473  -2.494   6.204  0.00  0.00    +0.000 C 
BRANCH  26  27
ATOM     27  C   UNL     1     -26.106  -1.364   5.545  0.00  0.00    +0.000 A 
ATOM     28  C   UNL     1     -26.761  -0.448   6.365  0.00  0.00    +0.000 A 
ATOM     29  C   UNL     1     -27.843   0.296   5.912  0.00  0.00    +0.000 A 
ATOM     30  C   UNL     1     -28.062   0.308   4.543  0.00  0.00    +0.000 A 
ATOM     31  C   UNL     1     -27.079  -0.177   3.690  0.00  0.00    +0.000 A 
ATOM     32  C   UNL     1     -26.183  -1.104   4.208  0.00  0.00    +0.000 A 
ENDBRANCH  26  27
ENDBRANCH  22  26
ENDBRANCH  19  20
ENDBRANCH  18  19
ENDBRANCH   6  18
TORSDOF 7
ENDMDL
MODEL 2
REMARK VINA RESULT:      -7.0     18.045     23.134
REMARK  Name = 
REMARK  7 active torsions:
REMARK  status: ('A' for Active; 'I' for Inactive)
REMARK    1  A    between atoms: C_5  and  C_6
REMARK    2  A    between atoms: C_7  and  C_8
REMARK    3  A    between atoms: C_16  and  O_17
REMARK    4  A    between atoms: O_17  and  C_18
REMARK    5  A    between atoms: C_18  and  C_19
REMARK    6  A    between atoms: N_21  and  C_22
REMARK    7  A    between atoms: C_22  and  C_23
REMARK                            x       y       z     vdW  Elec       q    Type
REMARK                         _______ _______ _______ _____ _____    ______ ____
ROOT
ATOM      1  O   UNL     1     -42.077  -5.985  -8.830  0.00  0.00    +0.000 OA
ATOM      2  C   UNL     1     -41.065  -5.654  -9.582  0.00  0.00    +0.000 A 
ATOM      3  C   UNL     1     -40.937  -6.306 -10.801  0.00  0.00    +0.000 A 
ATOM      4  C   UNL     1     -39.782  -6.110 -11.547  0.00  0.00    +0.000 A 
ATOM      5  C   UNL     1     -38.702  -5.394 -11.046  0.00  0.00    +0.000 A 
ATOM      6  C   UNL     1     -38.878  -4.715  -9.844  0.00  0.00    +0.000 A 
ATOM      7  C   UNL     1     -40.135  -4.694  -9.253  0.00  0.00    +0.000 A 
ENDROOT
BRANCH   5   8
ATOM      8  C   UNL     1     -37.377  -5.875 -11.462  0.00  0.00    +0.000 C 
ATOM      9  C   UNL     1     -37.046  -7.088 -11.080  0.00  0.00    +0.000 C 
BRANCH   9  10
ATOM     10  C   UNL     1     -36.222  -7.995 -11.881  0.00  0.00    +0.000 A 
ATOM     11  C   UNL     1     -36.087  -7.658 -13.222  0.00  0.00    +0.000 A 
ATOM     12  C   UNL     1     -35.652  -8.594 -14.122  0.00  0.00    +0.000 A 
ATOM     13  O   UNL     1     -35.720  -8.307 -15.488  0.00  0.00    +0.000 OA
ATOM     14  C   UNL     1     -35.632  -9.925 -13.779  0.00  0.00    +0.000 A 
ATOM     15  C   UNL     1     -35.920 -10.308 -12.496  0.00  0.00    +0.000 A 
ATOM     16  O   UNL     1     -35.934 -11.650 -12.174  0.00  0.00    +0.000 OA
ATOM     17  C   UNL     1     -36.161  -9.330 -11.564  0.00  0.00    +0.000 A 
ENDBRANCH   9  10
ENDBRANCH   5   8
BRANCH   6  18
ATOM     18  O   UNL     1     -37.728  -4.334  -9.195  0.00  0.00    +0.000 OA
BRANCH  18  19
ATOM     19  C   UNL     1     -37.325  -4.686  -7.918  0.00  0.00    +0.000 C 
BRANCH  19  20
ATOM     20  C   UNL     1     -36.127  -3.653  -7.464  0.00  0.00    +0.000 C 
ATOM     21  C   UNL     1     -35.397  -4.803  -6.536  0.00  0.00    +0.000 C 
ATOM     22  N   UNL     1     -34.297  -4.000  -6.048  0.00  0.00    +0.000 NA
ATOM     23  C   UNL     1     -34.690  -2.840  -5.342  0.00  0.00    +0.000 C 
ATOM     24  C   UNL     1     -36.079  -2.366  -5.527  0.00  0.00    +0.000 C 
ATOM     25  O   UNL     1     -36.915  -3.131  -6.279  0.00  0.00    +0.000 OA
BRANCH  22  26
ATOM     26  C   UNL     1     -33.202  -3.907  -6.929  0.00  0.00    +0.000 C 
BRANCH  26  27
ATOM     27  C   UNL     1     -31.895  -4.328  -6.455  0.00  0.00    +0.000 A 
ATOM     28  C   UNL     1     -31.832  -4.835  -5.159  0.00  0.00    +0.000 A 
ATOM     29  C   UNL     1     -30.682  -4.728  -4.387  0.00  0.00    +0.000 A 
ATOM     30  C   UNL     1     -29.519  -4.362  -5.048  0.00  0.00    +0.000 A 
ATOM     31  C   UNL     1     -29.488  -4.382  -6.436  0.00  0.00    +0.000 A 
ATOM     32  C   UNL     1     -30.699  -4.248  -7.106  0.00  0.00    +0.000 A 
ENDBRANCH  26  27
ENDBRANCH  22  26
ENDBRANCH  19  20
ENDBRANCH  18  19
ENDBRANCH   6  18
TORSDOF 7
ENDMDL
MODEL 3
REMARK VINA RESULT:      -6.9     15.596     20.565
REMARK  Name = 
REMARK  7 active torsions:
REMARK  status: ('A' for Active; 'I' for Inactive)
REMARK    1  A    between atoms: C_5  and  C_6
REMARK    2  A    between atoms: C_7  and  C_8
REMARK    3  A    between atoms: C_16  and  O_17
REMARK    4  A    between atoms: O_17  and  C_18
REMARK    5  A    between atoms: C_18  and  C_19
REMARK    6  A    between atoms: N_21  and  C_22
REMARK    7  A    between atoms: C_22  and  C_23
REMARK                            x       y       z     vdW  Elec       q    Type
REMARK                         _______ _______ _______ _____ _____    ______ ____
ROOT
ATOM      1  O   UNL     1     -38.470  -2.075  -5.327  0.00  0.00    +0.000 OA
ATOM      2  C   UNL     1     -37.656  -2.721  -6.114  0.00  0.00    +0.000 A 
ATOM      3  C   UNL     1     -38.210  -3.664  -6.968  0.00  0.00    +0.000 A 
ATOM      4  C   UNL     1     -37.361  -4.493  -7.691  0.00  0.00    +0.000 A 
ATOM      5  C   UNL     1     -35.988  -4.495  -7.481  0.00  0.00    +0.000 A 
ATOM      6  C   UNL     1     -35.460  -3.508  -6.655  0.00  0.00    +0.000 A 
ATOM      7  C   UNL     1     -36.296  -2.513  -6.163  0.00  0.00    +0.000 A 
ENDROOT
BRANCH   5   8
ATOM      8  C   UNL     1     -35.329  -5.800  -7.626  0.00  0.00    +0.000 C 
ATOM      9  C   UNL     1     -36.043  -6.763  -8.165  0.00  0.00    +0.000 C 
BRANCH   9  10
ATOM     10  C   UNL     1     -35.480  -7.809  -9.019  0.00  0.00    +0.000 A 
ATOM     11  C   UNL     1     -35.300  -7.465 -10.353  0.00  0.00    +0.000 A 
ATOM     12  C   UNL     1     -35.124  -8.444 -11.295  0.00  0.00    +0.000 A 
ATOM     13  O   UNL     1     -35.153  -8.098 -12.649  0.00  0.00    +0.000 OA
ATOM     14  C   UNL     1     -35.418  -9.752 -10.994  0.00  0.00    +0.000 A 
ATOM     15  C   UNL     1     -35.759 -10.103  -9.715  0.00  0.00    +0.000 A 
ATOM     16  O   UNL     1     -36.089 -11.414  -9.434  0.00  0.00    +0.000 OA
ATOM     17  C   UNL     1     -35.735  -9.131  -8.746  0.00  0.00    +0.000 A 
ENDBRANCH   9  10
ENDBRANCH   5   8
BRANCH   6  18
ATOM     18  O   UNL     1     -34.194  -3.742  -6.172  0.00  0.00    +0.000 OA
BRANCH  18  19
ATOM     19  C   UNL     1     -33.647  -3.287  -4.985  0.00  0.00    +0.000 C 
BRANCH  19  20
ATOM     20  C   UNL     1     -32.859  -4.545  -4.276  0.00  0.00    +0.000 C 
ATOM     21  C   UNL     1     -34.216  -5.035  -3.481  0.00  0.00    +0.000 C 
ATOM     22  N   UNL     1     -33.645  -6.165  -2.782  0.00  0.00    +0.000 NA
ATOM     23  C   UNL     1     -32.557  -5.842  -1.940  0.00  0.00    +0.000 C 
ATOM     24  C   UNL     1     -31.880  -4.546  -2.166  0.00  0.00    +0.000 C 
ATOM     25  O   UNL     1     -32.412  -3.707  -3.096  0.00  0.00    +0.000 OA
BRANCH  22  26
ATOM     26  C   UNL     1     -33.573  -7.348  -3.542  0.00  0.00    +0.000 C 
BRANCH  26  27
ATOM     27  C   UNL     1     -34.802  -8.077  -3.808  0.00  0.00    +0.000 A 
ATOM     28  C   UNL     1     -35.565  -8.441  -2.701  0.00  0.00    +0.000 A 
ATOM     29  C   UNL     1     -36.380  -9.565  -2.714  0.00  0.00    +0.000 A 
ATOM     30  C   UNL     1     -36.629 -10.142  -3.950  0.00  0.00    +0.000 A 
ATOM     31  C   UNL     1     -36.295  -9.449  -5.106  0.00  0.00    +0.000 A 
ATOM     32  C   UNL     1     -35.288  -8.494  -5.012  0.00  0.00    +0.000 A 
ENDBRANCH  26  27
ENDBRANCH  22  26
ENDBRANCH  19  20
ENDBRANCH  18  19
ENDBRANCH   6  18
TORSDOF 7
ENDMDL
MODEL 4
REMARK VINA RESULT:      -6.8     40.464     42.463
REMARK  Name = 
REMARK  7 active torsions:
REMARK  status: ('A' for Active; 'I' for Inactive)
REMARK    1  A    between atoms: C_5  and  C_6
REMARK    2  A    between atoms: C_7  and  C_8
REMARK    3  A    between atoms: C_16  and  O_17
REMARK    4  A    between atoms: O_17  and  C_18
REMARK    5  A    between atoms: C_18  and  C_19
REMARK    6  A    between atoms: N_21  and  C_22
REMARK    7  A    between atoms: C_22  and  C_23
REMARK                            x       y       z     vdW  Elec       q    Type
REMARK                         _______ _______ _______ _____ _____    ______ ____
ROOT
ATOM      1  O   UNL     1      -7.177  -0.095 -29.662  0.00  0.00    +0.000 OA
ATOM      2  C   UNL     1      -7.294   0.971 -30.404  0.00  0.00    +0.000 A 
ATOM      3  C   UNL     1      -6.523   2.073 -30.062  0.00  0.00    +0.000 A 
ATOM      4  C   UNL     1      -6.750   3.278 -30.716  0.00  0.00    +0.000 A 
ATOM      5  C   UNL     1      -7.810   3.441 -31.600  0.00  0.00    +0.000 A 
ATOM      6  C   UNL     1      -8.534   2.308 -31.957  0.00  0.00    +0.000 A 
ATOM      7  C   UNL     1      -8.114   1.063 -31.506  0.00  0.00    +0.000 A 
ENDROOT
BRANCH   5   8
ATOM      8  C   UNL     1      -8.430   4.773 -31.602  0.00  0.00    +0.000 C 
ATOM      9  C   UNL     1      -8.614   5.338 -30.430  0.00  0.00    +0.000 C 
BRANCH   9  10
ATOM     10  C   UNL     1      -8.518   6.780 -30.200  0.00  0.00    +0.000 A 
ATOM     11  C   UNL     1      -7.369   7.391 -30.685  0.00  0.00    +0.000 A 
ATOM     12  C   UNL     1      -7.008   8.631 -30.229  0.00  0.00    +0.000 A 
ATOM     13  O   UNL     1      -5.750   9.141 -30.564  0.00  0.00    +0.000 OA
ATOM     14  C   UNL     1      -7.592   9.146 -29.095  0.00  0.00    +0.000 A 
ATOM     15  C   UNL     1      -8.628   8.484 -28.494  0.00  0.00    +0.000 A 
ATOM     16  O   UNL     1      -9.180   8.992 -27.336  0.00  0.00    +0.000 OA
ATOM     17  C   UNL     1      -9.100   7.340 -29.089  0.00  0.00    +0.000 A 
ENDBRANCH   9  10
ENDBRANCH   5   8
BRANCH   6  18
ATOM     18  O   UNL     1      -9.769   2.535 -32.516  0.00  0.00    +0.000 OA
BRANCH  18  19
ATOM     19  C   UNL     1     -10.348   1.867 -33.581  0.00  0.00    +0.000 C 
BRANCH  19  20
ATOM     20  C   UNL     1     -11.253   2.951 -34.426  0.00  0.00    +0.000 C 
ATOM     21  C   UNL     1     -11.326   3.988 -33.147  0.00  0.00    +0.000 C 
ATOM     22  N   UNL     1     -12.132   5.016 -33.766  0.00  0.00    +0.000 NA
ATOM     23  C   UNL     1     -13.391   4.570 -34.231  0.00  0.00    +0.000 C 
ATOM     24  C   UNL     1     -13.573   3.114 -34.415  0.00  0.00    +0.000 C 
ATOM     25  O   UNL     1     -12.559   2.294 -34.028  0.00  0.00    +0.000 OA
BRANCH  22  26
ATOM     26  C   UNL     1     -11.412   5.928 -34.561  0.00  0.00    +0.000 C 
BRANCH  26  27
ATOM     27  C   UNL     1     -10.525   6.872 -33.901  0.00  0.00    +0.000 A 
ATOM     28  C   UNL     1     -11.019   7.502 -32.762  0.00  0.00    +0.000 A 
ATOM     29  C   UNL     1     -10.590   8.768 -32.383  0.00  0.00    +0.000 A 
ATOM     30  C   UNL     1      -9.453   9.255 -33.010  0.00  0.00    +0.000 A 
ATOM     31  C   UNL     1      -8.664   8.392 -33.759  0.00  0.00    +0.000 A 
ATOM     32  C   UNL     1      -9.275   7.259 -34.284  0.00  0.00    +0.000 A 
ENDBRANCH  26  27
ENDBRANCH  22  26
ENDBRANCH  19  20
ENDBRANCH  18  19
ENDBRANCH   6  18
TORSDOF 7
ENDMDL
MODEL 5
REMARK VINA RESULT:      -6.8     36.042     40.324
REMARK  Name = 
REMARK  7 active torsions:
REMARK  status: ('A' for Active; 'I' for Inactive)
REMARK    1  A    between atoms: C_5  and  C_6
REMARK    2  A    between atoms: C_7  and  C_8
REMARK    3  A    between atoms: C_16  and  O_17
REMARK    4  A    between atoms: O_17  and  C_18
REMARK    5  A    between atoms: C_18  and  C_19
REMARK    6  A    between atoms: N_21  and  C_22
REMARK    7  A    between atoms: C_22  and  C_23
REMARK                            x       y       z     vdW  Elec       q    Type
REMARK                         _______ _______ _______ _____ _____    ______ ____
ROOT
ATOM      1  O   UNL     1     -11.560  22.214 -28.308  0.00  0.00    +0.000 OA
ATOM      2  C   UNL     1     -11.536  21.227 -27.457  0.00  0.00    +0.000 A 
ATOM      3  C   UNL     1     -12.696  20.479 -27.315  0.00  0.00    +0.000 A 
ATOM      4  C   UNL     1     -12.766  19.537 -26.296  0.00  0.00    +0.000 A 
ATOM      5  C   UNL     1     -11.766  19.422 -25.339  0.00  0.00    +0.000 A 
ATOM      6  C   UNL     1     -10.597  20.151 -25.534  0.00  0.00    +0.000 A 
ATOM      7  C   UNL     1     -10.435  20.874 -26.709  0.00  0.00    +0.000 A 
ENDROOT
BRANCH   5   8
ATOM      8  C   UNL     1     -12.222  19.062 -23.989  0.00  0.00    +0.000 C 
ATOM      9  C   UNL     1     -12.786  20.016 -23.285  0.00  0.00    +0.000 C 
BRANCH   9  10
ATOM     10  C   UNL     1     -13.876  19.789 -22.335  0.00  0.00    +0.000 A 
ATOM     11  C   UNL     1     -14.667  18.674 -22.583  0.00  0.00    +0.000 A 
ATOM     12  C   UNL     1     -15.897  18.562 -21.993  0.00  0.00    +0.000 A 
ATOM     13  O   UNL     1     -16.763  17.546 -22.410  0.00  0.00    +0.000 OA
ATOM     14  C   UNL     1     -16.482  19.658 -21.403  0.00  0.00    +0.000 A 
ATOM     15  C   UNL     1     -15.784  20.830 -21.286  0.00  0.00    +0.000 A 
ATOM     16  O   UNL     1     -16.396  21.933 -20.727  0.00  0.00    +0.000 OA
ATOM     17  C   UNL     1     -14.479  20.854 -21.711  0.00  0.00    +0.000 A 
ENDBRANCH   9  10
ENDBRANCH   5   8
BRANCH   6  18
ATOM     18  O   UNL     1      -9.798  20.314 -24.427  0.00  0.00    +0.000 OA
BRANCH  18  19
ATOM     19  C   UNL     1      -8.459  20.665 -24.398  0.00  0.00    +0.000 C 
BRANCH  19  20
ATOM     20  C   UNL     1      -7.975  20.681 -22.826  0.00  0.00    +0.000 C 
ATOM     21  C   UNL     1      -9.437  21.238 -22.311  0.00  0.00    +0.000 C 
ATOM     22  N   UNL     1      -9.139  21.315 -20.898  0.00  0.00    +0.000 NA
ATOM     23  C   UNL     1      -8.046  22.153 -20.577  0.00  0.00    +0.000 C 
ATOM     24  C   UNL     1      -7.112  22.504 -21.668  0.00  0.00    +0.000 C 
ATOM     25  O   UNL     1      -7.420  22.088 -22.927  0.00  0.00    +0.000 OA
BRANCH  22  26
ATOM     26  C   UNL     1      -9.274  20.098 -20.204  0.00  0.00    +0.000 C 
BRANCH  26  27
ATOM     27  C   UNL     1     -10.605  19.538 -20.039  0.00  0.00    +0.000 A 
ATOM     28  C   UNL     1     -11.546  20.340 -19.398  0.00  0.00    +0.000 A 
ATOM     29  C   UNL     1     -12.598  19.794 -18.674  0.00  0.00    +0.000 A 
ATOM     30  C   UNL     1     -12.843  18.441 -18.851  0.00  0.00    +0.000 A 
ATOM     31  C   UNL     1     -12.233  17.770 -19.903  0.00  0.00    +0.000 A 
ATOM     32  C   UNL     1     -11.045  18.297 -20.396  0.00  0.00    +0.000 A 
ENDBRANCH  26  27
ENDBRANCH  22  26
ENDBRANCH  19  20
ENDBRANCH  18  19
ENDBRANCH   6  18
TORSDOF 7
ENDMDL
MODEL 6
REMARK VINA RESULT:      -6.8     36.969     41.288
REMARK  Name = 
REMARK  7 active torsions:
REMARK  status: ('A' for Active; 'I' for Inactive)
REMARK    1  A    between atoms: C_5  and  C_6
REMARK    2  A    between atoms: C_7  and  C_8
REMARK    3  A    between atoms: C_16  and  O_17
REMARK    4  A    between atoms: O_17  and  C_18
REMARK    5  A    between atoms: C_18  and  C_19
REMARK    6  A    between atoms: N_21  and  C_22
REMARK    7  A    between atoms: C_22  and  C_23
REMARK                            x       y       z     vdW  Elec       q    Type
REMARK                         _______ _______ _______ _____ _____    ______ ____
ROOT
ATOM      1  O   UNL     1     -13.442  23.407 -28.667  0.00  0.00    +0.000 OA
ATOM      2  C   UNL     1     -13.180  22.223 -28.187  0.00  0.00    +0.000 A 
ATOM      3  C   UNL     1     -14.259  21.409 -27.873  0.00  0.00    +0.000 A 
ATOM      4  C   UNL     1     -14.025  20.218 -27.198  0.00  0.00    +0.000 A 
ATOM      5  C   UNL     1     -12.765  19.888 -26.713  0.00  0.00    +0.000 A 
ATOM      6  C   UNL     1     -11.698  20.699 -27.084  0.00  0.00    +0.000 A 
ATOM      7  C   UNL     1     -11.910  21.729 -27.992  0.00  0.00    +0.000 A 
ENDROOT
BRANCH   5   8
ATOM      8  C   UNL     1     -12.752  19.142 -25.447  0.00  0.00    +0.000 C 
ATOM      9  C   UNL     1     -13.003  19.830 -24.357  0.00  0.00    +0.000 C 
BRANCH   9  10
ATOM     10  C   UNL     1     -13.715  19.285 -23.200  0.00  0.00    +0.000 A 
ATOM     11  C   UNL     1     -13.634  17.908 -23.038  0.00  0.00    +0.000 A 
ATOM     12  C   UNL     1     -14.526  17.261 -22.225  0.00  0.00    +0.000 A 
ATOM     13  O   UNL     1     -14.565  15.863 -22.234  0.00  0.00    +0.000 OA
ATOM     14  C   UNL     1     -15.670  17.899 -21.809  0.00  0.00    +0.000 A 
ATOM     15  C   UNL     1     -15.859  19.226 -22.093  0.00  0.00    +0.000 A 
ATOM     16  O   UNL     1     -17.029  19.845 -21.703  0.00  0.00    +0.000 OA
ATOM     17  C   UNL     1     -14.854  19.901 -22.740  0.00  0.00    +0.000 A 
ENDBRANCH   9  10
ENDBRANCH   5   8
BRANCH   6  18
ATOM     18  O   UNL     1     -10.561  20.584 -26.319  0.00  0.00    +0.000 OA
BRANCH  18  19
ATOM     19  C   UNL     1      -9.399  21.329 -26.419  0.00  0.00    +0.000 C 
BRANCH  19  20
ATOM     20  C   UNL     1      -8.545  21.122 -25.028  0.00  0.00    +0.000 C 
ATOM     21  C   UNL     1      -9.738  21.799 -24.116  0.00  0.00    +0.000 C 
ATOM     22  N   UNL     1      -9.092  21.691 -22.826  0.00  0.00    +0.000 NA
ATOM     23  C   UNL     1      -7.844  22.350 -22.741  0.00  0.00    +0.000 C 
ATOM     24  C   UNL     1      -7.167  22.695 -24.010  0.00  0.00    +0.000 C 
ATOM     25  O   UNL     1      -7.833  22.452 -25.171  0.00  0.00    +0.000 OA
BRANCH  22  26
ATOM     26  C   UNL     1      -9.228  20.435 -22.206  0.00  0.00    +0.000 C 
BRANCH  26  27
ATOM     27  C   UNL     1     -10.246  20.275 -21.181  0.00  0.00    +0.000 A 
ATOM     28  C   UNL     1     -10.207  19.097 -20.439  0.00  0.00    +0.000 A 
ATOM     29  C   UNL     1     -11.354  18.544 -19.885  0.00  0.00    +0.000 A 
ATOM     30  C   UNL     1     -12.481  19.351 -19.850  0.00  0.00    +0.000 A 
ATOM     31  C   UNL     1     -12.356  20.710 -20.108  0.00  0.00    +0.000 A 
ATOM     32  C   UNL     1     -11.274  21.118 -20.879  0.00  0.00    +0.000 A 
ENDBRANCH  26  27
ENDBRANCH  22  26
ENDBRANCH  19  20
ENDBRANCH  18  19
ENDBRANCH   6  18
TORSDOF 7
ENDMDL
MODEL 7
REMARK VINA RESULT:      -6.7     18.792     24.125
REMARK  Name = 
REMARK  7 active torsions:
REMARK  status: ('A' for Active; 'I' for Inactive)
REMARK    1  A    between atoms: C_5  and  C_6
REMARK    2  A    between atoms: C_7  and  C_8
REMARK    3  A    between atoms: C_16  and  O_17
REMARK    4  A    between atoms: O_17  and  C_18
REMARK    5  A    between atoms: C_18  and  C_19
REMARK    6  A    between atoms: N_21  and  C_22
REMARK    7  A    between atoms: C_22  and  C_23
REMARK                            x       y       z     vdW  Elec       q    Type
REMARK                         _______ _______ _______ _____ _____    ______ ____
ROOT
ATOM      1  O   UNL     1     -42.400  -2.613 -11.879  0.00  0.00    +0.000 OA
ATOM      2  C   UNL     1     -41.123  -2.811 -12.053  0.00  0.00    +0.000 A 
ATOM      3  C   UNL     1     -40.737  -3.530 -13.175  0.00  0.00    +0.000 A 
ATOM      4  C   UNL     1     -39.407  -3.911 -13.301  0.00  0.00    +0.000 A 
ATOM      5  C   UNL     1     -38.490  -3.711 -12.277  0.00  0.00    +0.000 A 
ATOM      6  C   UNL     1     -38.895  -2.948 -11.187  0.00  0.00    +0.000 A 
ATOM      7  C   UNL     1     -40.143  -2.338 -11.210  0.00  0.00    +0.000 A 
ENDROOT
BRANCH   5   8
ATOM      8  C   UNL     1     -37.461  -4.752 -12.138  0.00  0.00    +0.000 C 
ATOM      9  C   UNL     1     -37.856  -5.907 -11.654  0.00  0.00    +0.000 C 
BRANCH   9  10
ATOM     10  C   UNL     1     -37.294  -7.195 -12.064  0.00  0.00    +0.000 A 
ATOM     11  C   UNL     1     -36.418  -7.152 -13.141  0.00  0.00    +0.000 A 
ATOM     12  C   UNL     1     -36.115  -8.300 -13.824  0.00  0.00    +0.000 A 
ATOM     13  O   UNL     1     -35.403  -8.210 -15.024  0.00  0.00    +0.000 OA
ATOM     14  C   UNL     1     -36.885  -9.426 -13.654  0.00  0.00    +0.000 A 
ATOM     15  C   UNL     1     -37.872  -9.448 -12.705  0.00  0.00    +0.000 A 
ATOM     16  O   UNL     1     -38.661 -10.572 -12.571  0.00  0.00    +0.000 OA
ATOM     17  C   UNL     1     -38.021  -8.348 -11.898  0.00  0.00    +0.000 A 
ENDBRANCH   9  10
ENDBRANCH   5   8
BRANCH   6  18
ATOM     18  O   UNL     1     -38.131  -3.070 -10.050  0.00  0.00    +0.000 OA
BRANCH  18  19
ATOM     19  C   UNL     1     -38.540  -3.509  -8.803  0.00  0.00    +0.000 C 
BRANCH  19  20
ATOM     20  C   UNL     1     -38.067  -2.390  -7.693  0.00  0.00    +0.000 C 
ATOM     21  C   UNL     1     -37.402  -3.539  -6.718  0.00  0.00    +0.000 C 
ATOM     22  N   UNL     1     -36.945  -2.667  -5.659  0.00  0.00    +0.000 NA
ATOM     23  C   UNL     1     -37.966  -1.902  -5.051  0.00  0.00    +0.000 C 
ATOM     24  C   UNL     1     -39.241  -1.757  -5.787  0.00  0.00    +0.000 C 
ATOM     25  O   UNL     1     -39.385  -2.452  -6.948  0.00  0.00    +0.000 OA
BRANCH  22  26
ATOM     26  C   UNL     1     -35.704  -2.049  -5.904  0.00  0.00    +0.000 C 
BRANCH  26  27
ATOM     27  C   UNL     1     -34.491  -2.764  -5.543  0.00  0.00    +0.000 A 
ATOM     28  C   UNL     1     -34.564  -3.596  -4.428  0.00  0.00    +0.000 A 
ATOM     29  C   UNL     1     -33.450  -3.863  -3.642  0.00  0.00    +0.000 A 
ATOM     30  C   UNL     1     -32.217  -3.509  -4.166  0.00  0.00    +0.000 A 
ATOM     31  C   UNL     1     -32.118  -3.169  -5.509  0.00  0.00    +0.000 A 
ATOM     32  C   UNL     1     -33.264  -2.690  -6.134  0.00  0.00    +0.000 A 
ENDBRANCH  26  27
ENDBRANCH  22  26
ENDBRANCH  19  20
ENDBRANCH  18  19
ENDBRANCH   6  18
TORSDOF 7
ENDMDL
MODEL 8
REMARK VINA RESULT:      -6.7     21.366     24.144
REMARK  Name = 
REMARK  7 active torsions:
REMARK  status: ('A' for Active; 'I' for Inactive)
REMARK    1  A    between atoms: C_5  and  C_6
REMARK    2  A    between atoms: C_7  and  C_8
REMARK    3  A    between atoms: C_16  and  O_17
REMARK    4  A    between atoms: O_17  and  C_18
REMARK    5  A    between atoms: C_18  and  C_19
REMARK    6  A    between atoms: N_21  and  C_22
REMARK    7  A    between atoms: C_22  and  C_23
REMARK                            x       y       z     vdW  Elec       q    Type
REMARK                         _______ _______ _______ _____ _____    ______ ____
ROOT
ATOM      1  O   UNL     1     -19.690  17.152  26.083  0.00  0.00    +0.000 OA
ATOM      2  C   UNL     1     -19.012  16.744  25.047  0.00  0.00    +0.000 A 
ATOM      3  C   UNL     1     -17.658  16.500  25.228  0.00  0.00    +0.000 A 
ATOM      4  C   UNL     1     -16.871  16.237  24.113  0.00  0.00    +0.000 A 
ATOM      5  C   UNL     1     -17.372  16.346  22.822  0.00  0.00    +0.000 A 
ATOM      6  C   UNL     1     -18.741  16.546  22.676  0.00  0.00    +0.000 A 
ATOM      7  C   UNL     1     -19.556  16.526  23.801  0.00  0.00    +0.000 A 
ENDROOT
BRANCH   5   8
ATOM      8  C   UNL     1     -16.419  16.830  21.814  0.00  0.00    +0.000 C 
ATOM      9  C   UNL     1     -15.280  17.306  22.262  0.00  0.00    +0.000 C 
BRANCH   9  10
ATOM     10  C   UNL     1     -14.007  17.167  21.552  0.00  0.00    +0.000 A 
ATOM     11  C   UNL     1     -12.883  17.601  22.243  0.00  0.00    +0.000 A 
ATOM     12  C   UNL     1     -11.718  17.849  21.568  0.00  0.00    +0.000 A 
ATOM     13  O   UNL     1     -10.664  18.479  22.237  0.00  0.00    +0.000 OA
ATOM     14  C   UNL     1     -11.725  17.963  20.198  0.00  0.00    +0.000 A 
ATOM     15  C   UNL     1     -12.868  17.698  19.492  0.00  0.00    +0.000 A 
ATOM     16  O   UNL     1     -12.872  17.853  18.121  0.00  0.00    +0.000 OA
ATOM     17  C   UNL     1     -13.970  17.259  20.182  0.00  0.00    +0.000 A 
ENDBRANCH   9  10
ENDBRANCH   5   8
BRANCH   6  18
ATOM     18  O   UNL     1     -19.153  17.012  21.450  0.00  0.00    +0.000 OA
BRANCH  18  19
ATOM     19  C   UNL     1     -20.265  16.614  20.727  0.00  0.00    +0.000 C 
BRANCH  19  20
ATOM     20  C   UNL     1     -19.878  16.679  19.129  0.00  0.00    +0.000 C 
ATOM     21  C   UNL     1     -18.770  15.469  19.280  0.00  0.00    +0.000 C 
ATOM     22  N   UNL     1     -18.326  15.428  17.904  0.00  0.00    +0.000 NA
ATOM     23  C   UNL     1     -17.798  16.649  17.425  0.00  0.00    +0.000 C 
ATOM     24  C   UNL     1     -18.124  17.877  18.183  0.00  0.00    +0.000 C 
ATOM     25  O   UNL     1     -18.819  17.740  19.344  0.00  0.00    +0.000 OA
BRANCH  22  26
ATOM     26  C   UNL     1     -19.146  14.672  17.045  0.00  0.00    +0.000 C 
BRANCH  26  27
ATOM     27  C   UNL     1     -18.567  13.523  16.368  0.00  0.00    +0.000 A 
ATOM     28  C   UNL     1     -18.513  12.334  17.091  0.00  0.00    +0.000 A 
ATOM     29  C   UNL     1     -17.533  11.379  16.853  0.00  0.00    +0.000 A 
ATOM     30  C   UNL     1     -16.793  11.520  15.689  0.00  0.00    +0.000 A 
ATOM     31  C   UNL     1     -17.221  12.410  14.712  0.00  0.00    +0.000 A 
ATOM     32  C   UNL     1     -18.022  13.470  15.119  0.00  0.00    +0.000 A 
ENDBRANCH  26  27
ENDBRANCH  22  26
ENDBRANCH  19  20
ENDBRANCH  18  19
ENDBRANCH   6  18
TORSDOF 7
ENDMDL
MODEL 9
REMARK VINA RESULT:      -6.6      2.113      2.969
REMARK  Name = 
REMARK  7 active torsions:
REMARK  status: ('A' for Active; 'I' for Inactive)
REMARK    1  A    between atoms: C_5  and  C_6
REMARK    2  A    between atoms: C_7  and  C_8
REMARK    3  A    between atoms: C_16  and  O_17
REMARK    4  A    between atoms: O_17  and  C_18
REMARK    5  A    between atoms: C_18  and  C_19
REMARK    6  A    between atoms: N_21  and  C_22
REMARK    7  A    between atoms: C_22  and  C_23
REMARK                            x       y       z     vdW  Elec       q    Type
REMARK                         _______ _______ _______ _____ _____    ______ ____
ROOT
ATOM      1  O   UNL     1     -20.157  -9.605  10.112  0.00  0.00    +0.000 OA
ATOM      2  C   UNL     1     -20.152  -8.476   9.459  0.00  0.00    +0.000 A 
ATOM      3  C   UNL     1     -18.937  -8.041   8.948  0.00  0.00    +0.000 A 
ATOM      4  C   UNL     1     -18.858  -6.765   8.404  0.00  0.00    +0.000 A 
ATOM      5  C   UNL     1     -19.919  -5.871   8.481  0.00  0.00    +0.000 A 
ATOM      6  C   UNL     1     -21.135  -6.351   8.956  0.00  0.00    +0.000 A 
ATOM      7  C   UNL     1     -21.271  -7.706   9.232  0.00  0.00    +0.000 A 
ENDROOT
BRANCH   5   8
ATOM      8  C   UNL     1     -19.544  -4.459   8.637  0.00  0.00    +0.000 C 
ATOM      9  C   UNL     1     -18.516  -4.042   7.932  0.00  0.00    +0.000 C 
BRANCH   9  10
ATOM     10  C   UNL     1     -18.407  -2.692   7.378  0.00  0.00    +0.000 A 
ATOM     11  C   UNL     1     -17.326  -2.475   6.533  0.00  0.00    +0.000 A 
ATOM     12  C   UNL     1     -16.926  -1.197   6.247  0.00  0.00    +0.000 A 
ATOM     13  O   UNL     1     -15.719  -0.997   5.570  0.00  0.00    +0.000 OA
ATOM     14  C   UNL     1     -17.379  -0.146   7.008  0.00  0.00    +0.000 A 
ATOM     15  C   UNL     1     -18.334  -0.353   7.968  0.00  0.00    +0.000 A 
ATOM     16  O   UNL     1     -18.753   0.704   8.750  0.00  0.00    +0.000 OA
ATOM     17  C   UNL     1     -18.862  -1.614   8.097  0.00  0.00    +0.000 A 
ENDBRANCH   9  10
ENDBRANCH   5   8
BRANCH   6  18
ATOM     18  O   UNL     1     -22.038  -5.399   9.367  0.00  0.00    +0.000 OA
BRANCH  18  19
ATOM     19  C   UNL     1     -23.405  -5.548   9.528  0.00  0.00    +0.000 C 
BRANCH  19  20
ATOM     20  C   UNL     1     -24.117  -4.115   9.145  0.00  0.00    +0.000 C 
ATOM     21  C   UNL     1     -24.905  -4.774   7.857  0.00  0.00    +0.000 C 
ATOM     22  N   UNL     1     -25.583  -3.581   7.402  0.00  0.00    +0.000 NA
ATOM     23  C   UNL     1     -24.723  -2.508   7.076  0.00  0.00    +0.000 C 
ATOM     24  C   UNL     1     -23.341  -2.559   7.601  0.00  0.00    +0.000 C 
ATOM     25  O   UNL     1     -22.958  -3.678   8.273  0.00  0.00    +0.000 OA
BRANCH  22  26
ATOM     26  C   UNL     1     -26.782  -3.292   8.082  0.00  0.00    +0.000 C 
BRANCH  26  27
ATOM     27  C   UNL     1     -28.039  -3.459   7.372  0.00  0.00    +0.000 A 
ATOM     28  C   UNL     1     -29.129  -2.737   7.852  0.00  0.00    +0.000 A 
ATOM     29  C   UNL     1     -30.432  -3.192   7.696  0.00  0.00    +0.000 A 
ATOM     30  C   UNL     1     -30.627  -4.233   6.802  0.00  0.00    +0.000 A 
ATOM     31  C   UNL     1     -29.604  -4.585   5.930  0.00  0.00    +0.000 A 
ATOM     32  C   UNL     1     -28.304  -4.275   6.312  0.00  0.00    +0.000 A 
ENDBRANCH  26  27
ENDBRANCH  22  26
ENDBRANCH  19  20
ENDBRANCH  18  19
ENDBRANCH   6  18
TORSDOF 7
ENDMDL
MODEL 10
REMARK VINA RESULT:      -6.5     16.095     21.758
REMARK  Name = 
REMARK  7 active torsions:
REMARK  status: ('A' for Active; 'I' for Inactive)
REMARK    1  A    between atoms: C_5  and  C_6
REMARK    2  A    between atoms: C_7  and  C_8
REMARK    3  A    between atoms: C_16  and  O_17
REMARK    4  A    between atoms: O_17  and  C_18
REMARK    5  A    between atoms: C_18  and  C_19
REMARK    6  A    between atoms: N_21  and  C_22
REMARK    7  A    between atoms: C_22  and  C_23
REMARK                            x       y       z     vdW  Elec       q    Type
REMARK                         _______ _______ _______ _____ _____    ______ ____
ROOT
ATOM      1  O   UNL     1     -41.708  -0.243  -5.042  0.00  0.00    +0.000 OA
ATOM      2  C   UNL     1     -40.602  -0.380  -5.718  0.00  0.00    +0.000 A 
ATOM      3  C   UNL     1     -40.679  -0.260  -7.098  0.00  0.00    +0.000 A 
ATOM      4  C   UNL     1     -39.562  -0.574  -7.862  0.00  0.00    +0.000 A 
ATOM      5  C   UNL     1     -38.422  -1.130  -7.294  0.00  0.00    +0.000 A 
ATOM      6  C   UNL     1     -38.357  -1.194  -5.906  0.00  0.00    +0.000 A 
ATOM      7  C   UNL     1     -39.370  -0.616  -5.151  0.00  0.00    +0.000 A 
ENDROOT
BRANCH   5   8
ATOM      8  C   UNL     1     -37.706  -2.098  -8.136  0.00  0.00    +0.000 C 
ATOM      9  C   UNL     1     -38.433  -3.033  -8.705  0.00  0.00    +0.000 C 
BRANCH   9  10
ATOM     10  C   UNL     1     -38.145  -3.594 -10.026  0.00  0.00    +0.000 A 
ATOM     11  C   UNL     1     -38.505  -2.801 -11.108  0.00  0.00    +0.000 A 
ATOM     12  C   UNL     1     -38.612  -3.353 -12.356  0.00  0.00    +0.000 A 
ATOM     13  O   UNL     1     -39.173  -2.596 -13.389  0.00  0.00    +0.000 OA
ATOM     14  C   UNL     1     -38.662  -4.719 -12.505  0.00  0.00    +0.000 A 
ATOM     15  C   UNL     1     -38.471  -5.535 -11.422  0.00  0.00    +0.000 A 
ATOM     16  O   UNL     1     -38.562  -6.903 -11.578  0.00  0.00    +0.000 OA
ATOM     17  C   UNL     1     -38.168  -4.954 -10.216  0.00  0.00    +0.000 A 
ENDBRANCH   9  10
ENDBRANCH   5   8
BRANCH   6  18
ATOM     18  O   UNL     1     -37.423  -2.059  -5.388  0.00  0.00    +0.000 OA
BRANCH  18  19
ATOM     19  C   UNL     1     -36.689  -1.908  -4.224  0.00  0.00    +0.000 C 
BRANCH  19  20
ATOM     20  C   UNL     1     -35.453  -2.993  -4.261  0.00  0.00    +0.000 C 
ATOM     21  C   UNL     1     -34.805  -2.309  -5.613  0.00  0.00    +0.000 C 
ATOM     22  N   UNL     1     -33.679  -3.203  -5.772  0.00  0.00    +0.000 NA
ATOM     23  C   UNL     1     -34.031  -4.565  -5.916  0.00  0.00    +0.000 C 
ATOM     24  C   UNL     1     -35.389  -4.967  -5.489  0.00  0.00    +0.000 C 
ATOM     25  O   UNL     1     -36.244  -3.988  -5.086  0.00  0.00    +0.000 OA
BRANCH  22  26
ATOM     26  C   UNL     1     -32.559  -2.883  -4.982  0.00  0.00    +0.000 C 
BRANCH  26  27
ATOM     27  C   UNL     1     -31.871  -3.958  -4.288  0.00  0.00    +0.000 A 
ATOM     28  C   UNL     1     -32.327  -4.270  -3.009  0.00  0.00    +0.000 A 
ATOM     29  C   UNL     1     -31.483  -4.803  -2.043  0.00  0.00    +0.000 A 
ATOM     30  C   UNL     1     -30.257  -5.280  -2.479  0.00  0.00    +0.000 A 
ATOM     31  C   UNL     1     -30.036  -5.451  -3.840  0.00  0.00    +0.000 A 
ATOM     32  C   UNL     1     -30.795  -4.681  -4.713  0.00  0.00    +0.000 A 
ENDBRANCH  26  27
ENDBRANCH  22  26
ENDBRANCH  19  20
ENDBRANCH  18  19
ENDBRANCH   6  18
TORSDOF 7
ENDMDL
