MODEL 1
REMARK VINA RESULT:      -7.4      0.000      0.000
REMARK  Name = 
REMARK  7 active torsions:
REMARK  status: ('A' for Active; 'I' for Inactive)
REMARK    1  A    between atoms: C_5  and  C_6
REMARK    2  A    between atoms: C_7  and  C_8
REMARK    3  A    between atoms: C_16  and  O_17
REMARK    4  A    between atoms: O_17  and  C_18
REMARK    5  A    between atoms: C_18  and  C_19
REMARK    6  A    between atoms: N_21  and  C_22
REMARK    7  A    between atoms: C_22  and  C_23
REMARK                            x       y       z     vdW  Elec       q    Type
REMARK                         _______ _______ _______ _____ _____    ______ ____
ROOT
ATOM      1  O   UNL     1     -29.524  13.658  -9.645  0.00  0.00    +0.000 OA
ATOM      2  C   UNL     1     -28.994  12.795 -10.097  0.00  0.00    +0.000 A 
ATOM      3  C   UNL     1     -29.032  12.412 -11.434  0.00  0.00    +0.000 A 
ATOM      4  C   UNL     1     -28.447  11.221 -11.850  0.00  0.00    +0.000 A 
ATOM      5  C   UNL     1     -27.855  10.371 -10.923  0.00  0.00    +0.000 A 
ATOM      6  C   UNL     1     -27.598  10.839  -9.636  0.00  0.00    +0.000 A 
ATOM      7  C   UNL     1     -28.133  12.064  -9.295  0.00  0.00    +0.000 A 
ENDROOT
BRANCH   5   8
ATOM      8  C   UNL     1     -27.853   8.922 -11.062  0.00  0.00    +0.000 C 
ATOM      9  C   UNL     1     -28.733   8.210 -11.703  0.00  0.00    +0.000 C 
BRANCH   9  10
ATOM     10  C   UNL     1     -29.432   7.045 -11.156  0.00  0.00    +0.000 A 
ATOM     11  C   UNL     1     -30.754   7.189 -10.811  0.00  0.00    +0.000 A 
ATOM     12  C   UNL     1     -31.498   6.047 -10.574  0.00  0.00    +0.000 A 
ATOM     13  O   UNL     1     -32.889   6.134 -10.641  0.00  0.00    +0.000 OA
ATOM     14  C   UNL     1     -30.839   4.829 -10.484  0.00  0.00    +0.000 A 
ATOM     15  C   UNL     1     -29.454   4.763 -10.563  0.00  0.00    +0.000 A 
ATOM     16  O   UNL     1     -28.742   3.623 -10.201  0.00  0.00    +0.000 OA
ATOM     17  C   UNL     1     -28.745   5.936 -10.744  0.00  0.00    +0.000 A 
ENDBRANCH   9  10
ENDBRANCH   5   8
BRANCH   6  18
ATOM     18  O   UNL     1     -26.448  10.319  -9.073  0.00  0.00    +0.000 OA
BRANCH  18  19
ATOM     19  C   UNL     1     -26.306   9.879  -7.752  0.00  0.00    +0.000 C 
BRANCH  19  20
ATOM     20  C   UNL     1     -26.133   8.264  -8.072  0.00  0.00    +0.000 C 
ATOM     21  C   UNL     1     -24.969   8.069  -6.942  0.00  0.00    +0.000 C 
ATOM     22  N   UNL     1     -25.323   8.277  -5.682  0.00  0.00    +0.000 NA
ATOM     23  C   UNL     1     -26.551   8.469  -5.090  0.00  0.00    +0.000 C 
ATOM     24  C   UNL     1     -27.531   8.755  -6.218  0.00  0.00    +0.000 C 
ATOM     25  O   UNL     1     -27.261   7.843  -7.153  0.00  0.00    +0.000 OA
BRANCH  22  26
ATOM     26  C   UNL     1     -24.361   7.731  -4.778  0.00  0.00    +0.000 C 
BRANCH  26  27
ATOM     27  C   UNL     1     -23.685   8.889  -4.157  0.00  0.00    +0.000 A 
ATOM     28  C   UNL     1     -23.539   8.833  -2.780  0.00  0.00    +0.000 A 
ATOM     29  C   UNL     1     -22.706   9.712  -2.147  0.00  0.00    +0.000 A 
ATOM     30  C   UNL     1     -22.497  10.943  -2.751  0.00  0.00    +0.000 A 
ATOM     31  C   UNL     1     -22.919  11.133  -4.054  0.00  0.00    +0.000 A 
ATOM     32  C   UNL     1     -23.300  10.024  -4.799  0.00  0.00    +0.000 A 
ENDBRANCH  26  27
ENDBRANCH  22  26
ENDBRANCH  19  20
ENDBRANCH  18  19
ENDBRANCH   6  18
TORSDOF 7
ENDMDL
MODEL 2
REMARK VINA RESULT:      -7.0      3.316      7.042
REMARK  Name = 
REMARK  7 active torsions:
REMARK  status: ('A' for Active; 'I' for Inactive)
REMARK    1  A    between atoms: C_5  and  C_6
REMARK    2  A    between atoms: C_7  and  C_8
REMARK    3  A    between atoms: C_16  and  O_17
REMARK    4  A    between atoms: O_17  and  C_18
REMARK    5  A    between atoms: C_18  and  C_19
REMARK    6  A    between atoms: N_21  and  C_22
REMARK    7  A    between atoms: C_22  and  C_23
REMARK                            x       y       z     vdW  Elec       q    Type
REMARK                         _______ _______ _______ _____ _____    ______ ____
ROOT
ATOM      1  O   UNL     1     -30.990   8.007  -4.205  0.00  0.00    +0.000 OA
ATOM      2  C   UNL     1     -30.534   8.213  -5.195  0.00  0.00    +0.000 A 
ATOM      3  C   UNL     1     -29.220   8.603  -5.432  0.00  0.00    +0.000 A 
ATOM      4  C   UNL     1     -28.808   8.981  -6.706  0.00  0.00    +0.000 A 
ATOM      5  C   UNL     1     -29.722   9.019  -7.753  0.00  0.00    +0.000 A 
ATOM      6  C   UNL     1     -30.967   8.414  -7.594  0.00  0.00    +0.000 A 
ATOM      7  C   UNL     1     -31.298   7.983  -6.327  0.00  0.00    +0.000 A 
ENDROOT
BRANCH   5   8
ATOM      8  C   UNL     1     -29.639   9.981  -8.842  0.00  0.00    +0.000 C 
ATOM      9  C   UNL     1     -28.561  10.331  -9.479  0.00  0.00    +0.000 C 
BRANCH   9  10
ATOM     10  C   UNL     1     -28.128  11.712  -9.706  0.00  0.00    +0.000 A 
ATOM     11  C   UNL     1     -27.202  12.248  -8.844  0.00  0.00    +0.000 A 
ATOM     12  C   UNL     1     -26.573  13.425  -9.207  0.00  0.00    +0.000 A 
ATOM     13  O   UNL     1     -25.369  13.754  -8.584  0.00  0.00    +0.000 OA
ATOM     14  C   UNL     1     -27.048  14.123 -10.309  0.00  0.00    +0.000 A 
ATOM     15  C   UNL     1     -28.173  13.686 -10.994  0.00  0.00    +0.000 A 
ATOM     16  O   UNL     1     -28.843  14.490 -11.912  0.00  0.00    +0.000 OA
ATOM     17  C   UNL     1     -28.805  12.535 -10.564  0.00  0.00    +0.000 A 
ENDBRANCH   9  10
ENDBRANCH   5   8
BRANCH   6  18
ATOM     18  O   UNL     1     -31.462   7.848  -8.753  0.00  0.00    +0.000 OA
BRANCH  18  19
ATOM     19  C   UNL     1     -31.213   6.546  -9.204  0.00  0.00    +0.000 C 
BRANCH  19  20
ATOM     20  C   UNL     1     -31.231   6.867 -10.829  0.00  0.00    +0.000 C 
ATOM     21  C   UNL     1     -29.601   6.964 -10.921  0.00  0.00    +0.000 C 
ATOM     22  N   UNL     1     -28.924   5.858 -10.654  0.00  0.00    +0.000 NA
ATOM     23  C   UNL     1     -29.325   4.554 -10.468  0.00  0.00    +0.000 C 
ATOM     24  C   UNL     1     -30.834   4.593 -10.278  0.00  0.00    +0.000 C 
ATOM     25  O   UNL     1     -31.284   5.408 -11.233  0.00  0.00    +0.000 OA
BRANCH  22  26
ATOM     26  C   UNL     1     -27.576   5.953 -11.117  0.00  0.00    +0.000 C 
BRANCH  26  27
ATOM     27  C   UNL     1     -26.859   6.769 -10.115  0.00  0.00    +0.000 A 
ATOM     28  C   UNL     1     -25.908   7.642 -10.619  0.00  0.00    +0.000 A 
ATOM     29  C   UNL     1     -25.386   8.617  -9.816  0.00  0.00    +0.000 A 
ATOM     30  C   UNL     1     -25.354   8.374  -8.451  0.00  0.00    +0.000 A 
ATOM     31  C   UNL     1     -26.062   7.300  -7.943  0.00  0.00    +0.000 A 
ATOM     32  C   UNL     1     -26.982   6.660  -8.765  0.00  0.00    +0.000 A 
ENDBRANCH  26  27
ENDBRANCH  22  26
ENDBRANCH  19  20
ENDBRANCH  18  19
ENDBRANCH   6  18
TORSDOF 7
ENDMDL
MODEL 3
REMARK VINA RESULT:      -6.9      4.518      9.132
REMARK  Name = 
REMARK  7 active torsions:
REMARK  status: ('A' for Active; 'I' for Inactive)
REMARK    1  A    between atoms: C_5  and  C_6
REMARK    2  A    between atoms: C_7  and  C_8
REMARK    3  A    between atoms: C_16  and  O_17
REMARK    4  A    between atoms: O_17  and  C_18
REMARK    5  A    between atoms: C_18  and  C_19
REMARK    6  A    between atoms: N_21  and  C_22
REMARK    7  A    between atoms: C_22  and  C_23
REMARK                            x       y       z     vdW  Elec       q    Type
REMARK                         _______ _______ _______ _____ _____    ______ ____
ROOT
ATOM      1  O   UNL     1     -28.735   3.590 -10.083  0.00  0.00    +0.000 OA
ATOM      2  C   UNL     1     -29.032   4.492 -10.656  0.00  0.00    +0.000 A 
ATOM      3  C   UNL     1     -28.317   5.082 -11.694  0.00  0.00    +0.000 A 
ATOM      4  C   UNL     1     -28.718   6.301 -12.232  0.00  0.00    +0.000 A 
ATOM      5  C   UNL     1     -29.816   6.970 -11.705  0.00  0.00    +0.000 A 
ATOM      6  C   UNL     1     -30.675   6.295 -10.839  0.00  0.00    +0.000 A 
ATOM      7  C   UNL     1     -30.271   5.055 -10.395  0.00  0.00    +0.000 A 
ENDROOT
BRANCH   5   8
ATOM      8  C   UNL     1     -29.915   8.422 -11.662  0.00  0.00    +0.000 C 
ATOM      9  C   UNL     1     -29.126   9.264 -12.261  0.00  0.00    +0.000 C 
BRANCH   9  10
ATOM     10  C   UNL     1     -28.461  10.400 -11.617  0.00  0.00    +0.000 A 
ATOM     11  C   UNL     1     -28.410  11.590 -12.300  0.00  0.00    +0.000 A 
ATOM     12  C   UNL     1     -28.056  12.731 -11.604  0.00  0.00    +0.000 A 
ATOM     13  O   UNL     1     -28.398  13.972 -12.142  0.00  0.00    +0.000 OA
ATOM     14  C   UNL     1     -27.565  12.598 -10.312  0.00  0.00    +0.000 A 
ATOM     15  C   UNL     1     -27.368  11.343  -9.754  0.00  0.00    +0.000 A 
ATOM     16  O   UNL     1     -26.625  11.155  -8.591  0.00  0.00    +0.000 OA
ATOM     17  C   UNL     1     -27.683  10.227 -10.505  0.00  0.00    +0.000 A 
ENDBRANCH   9  10
ENDBRANCH   5   8
BRANCH   6  18
ATOM     18  O   UNL     1     -31.998   6.676 -10.959  0.00  0.00    +0.000 OA
BRANCH  18  19
ATOM     19  C   UNL     1     -32.834   7.085  -9.913  0.00  0.00    +0.000 C 
BRANCH  19  20
ATOM     20  C   UNL     1     -34.179   7.416 -10.821  0.00  0.00    +0.000 C 
ATOM     21  C   UNL     1     -35.206   7.012  -9.615  0.00  0.00    +0.000 C 
ATOM     22  N   UNL     1     -35.163   7.759  -8.522  0.00  0.00    +0.000 NA
ATOM     23  C   UNL     1     -34.528   8.949  -8.244  0.00  0.00    +0.000 C 
ATOM     24  C   UNL     1     -33.520   9.168  -9.362  0.00  0.00    +0.000 C 
ATOM     25  O   UNL     1     -34.182   8.893 -10.486  0.00  0.00    +0.000 OA
BRANCH  22  26
ATOM     26  C   UNL     1     -36.323   7.558  -7.712  0.00  0.00    +0.000 C 
BRANCH  26  27
ATOM     27  C   UNL     1     -36.065   6.329  -6.932  0.00  0.00    +0.000 A 
ATOM     28  C   UNL     1     -37.160   5.505  -6.727  0.00  0.00    +0.000 A 
ATOM     29  C   UNL     1     -36.978   4.236  -6.254  0.00  0.00    +0.000 A 
ATOM     30  C   UNL     1     -35.858   3.999  -5.471  0.00  0.00    +0.000 A 
ATOM     31  C   UNL     1     -34.865   4.958  -5.411  0.00  0.00    +0.000 A 
ATOM     32  C   UNL     1     -34.891   6.004  -6.326  0.00  0.00    +0.000 A 
ENDBRANCH  26  27
ENDBRANCH  22  26
ENDBRANCH  19  20
ENDBRANCH  18  19
ENDBRANCH   6  18
TORSDOF 7
ENDMDL
MODEL 4
REMARK VINA RESULT:      -6.8      2.846      5.373
REMARK  Name = 
REMARK  7 active torsions:
REMARK  status: ('A' for Active; 'I' for Inactive)
REMARK    1  A    between atoms: C_5  and  C_6
REMARK    2  A    between atoms: C_7  and  C_8
REMARK    3  A    between atoms: C_16  and  O_17
REMARK    4  A    between atoms: O_17  and  C_18
REMARK    5  A    between atoms: C_18  and  C_19
REMARK    6  A    between atoms: N_21  and  C_22
REMARK    7  A    between atoms: C_22  and  C_23
REMARK                            x       y       z     vdW  Elec       q    Type
REMARK                         _______ _______ _______ _____ _____    ______ ____
ROOT
ATOM      1  O   UNL     1     -24.760  11.714  -3.568  0.00  0.00    +0.000 OA
ATOM      2  C   UNL     1     -24.727  10.747  -4.112  0.00  0.00    +0.000 A 
ATOM      3  C   UNL     1     -23.629  10.213  -4.779  0.00  0.00    +0.000 A 
ATOM      4  C   UNL     1     -23.755   9.065  -5.553  0.00  0.00    +0.000 A 
ATOM      5  C   UNL     1     -24.997   8.461  -5.709  0.00  0.00    +0.000 A 
ATOM      6  C   UNL     1     -26.048   8.834  -4.872  0.00  0.00    +0.000 A 
ATOM      7  C   UNL     1     -25.845   9.931  -4.063  0.00  0.00    +0.000 A 
ENDROOT
BRANCH   5   8
ATOM      8  C   UNL     1     -25.397   7.773  -6.928  0.00  0.00    +0.000 C 
ATOM      9  C   UNL     1     -25.173   8.172  -8.146  0.00  0.00    +0.000 C 
BRANCH   9  10
ATOM     10  C   UNL     1     -26.188   8.281  -9.196  0.00  0.00    +0.000 A 
ATOM     11  C   UNL     1     -26.384   7.200 -10.019  0.00  0.00    +0.000 A 
ATOM     12  C   UNL     1     -27.518   7.175 -10.811  0.00  0.00    +0.000 A 
ATOM     13  O   UNL     1     -27.950   5.949 -11.316  0.00  0.00    +0.000 OA
ATOM     14  C   UNL     1     -28.292   8.324 -10.903  0.00  0.00    +0.000 A 
ATOM     15  C   UNL     1     -27.901   9.495 -10.268  0.00  0.00    +0.000 A 
ATOM     16  O   UNL     1     -28.482  10.727 -10.557  0.00  0.00    +0.000 OA
ATOM     17  C   UNL     1     -26.732   9.491  -9.532  0.00  0.00    +0.000 A 
ENDBRANCH   9  10
ENDBRANCH   5   8
BRANCH   6  18
ATOM     18  O   UNL     1     -26.906   7.797  -4.561  0.00  0.00    +0.000 OA
BRANCH  18  19
ATOM     19  C   UNL     1     -28.045   7.887  -3.751  0.00  0.00    +0.000 C 
BRANCH  19  20
ATOM     20  C   UNL     1     -28.299   6.264  -3.543  0.00  0.00    +0.000 C 
ATOM     21  C   UNL     1     -27.016   6.097  -2.544  0.00  0.00    +0.000 C 
ATOM     22  N   UNL     1     -27.072   6.747  -1.391  0.00  0.00    +0.000 NA
ATOM     23  C   UNL     1     -28.093   7.426  -0.765  0.00  0.00    +0.000 C 
ATOM     24  C   UNL     1     -29.178   7.628  -1.812  0.00  0.00    +0.000 C 
ATOM     25  O   UNL     1     -29.298   6.447  -2.421  0.00  0.00    +0.000 OA
BRANCH  22  26
ATOM     26  C   UNL     1     -26.104   6.246  -0.468  0.00  0.00    +0.000 C 
BRANCH  26  27
ATOM     27  C   UNL     1     -24.818   6.864  -0.854  0.00  0.00    +0.000 A 
ATOM     28  C   UNL     1     -23.712   6.029  -0.810  0.00  0.00    +0.000 A 
ATOM     29  C   UNL     1     -22.540   6.421  -1.392  0.00  0.00    +0.000 A 
ATOM     30  C   UNL     1     -22.295   7.783  -1.486  0.00  0.00    +0.000 A 
ATOM     31  C   UNL     1     -23.324   8.670  -1.229  0.00  0.00    +0.000 A 
ATOM     32  C   UNL     1     -24.621   8.179  -1.141  0.00  0.00    +0.000 A 
ENDBRANCH  26  27
ENDBRANCH  22  26
ENDBRANCH  19  20
ENDBRANCH  18  19
ENDBRANCH   6  18
TORSDOF 7
ENDMDL
MODEL 5
REMARK VINA RESULT:      -6.7     14.485     17.960
REMARK  Name = 
REMARK  7 active torsions:
REMARK  status: ('A' for Active; 'I' for Inactive)
REMARK    1  A    between atoms: C_5  and  C_6
REMARK    2  A    between atoms: C_7  and  C_8
REMARK    3  A    between atoms: C_16  and  O_17
REMARK    4  A    between atoms: O_17  and  C_18
REMARK    5  A    between atoms: C_18  and  C_19
REMARK    6  A    between atoms: N_21  and  C_22
REMARK    7  A    between atoms: C_22  and  C_23
REMARK                            x       y       z     vdW  Elec       q    Type
REMARK                         _______ _______ _______ _____ _____    ______ ____
ROOT
ATOM      1  O   UNL     1     -39.624  -4.878  -9.948  0.00  0.00    +0.000 OA
ATOM      2  C   UNL     1     -38.674  -5.440 -10.054  0.00  0.00    +0.000 A 
ATOM      3  C   UNL     1     -38.181  -6.014 -11.222  0.00  0.00    +0.000 A 
ATOM      4  C   UNL     1     -37.053  -6.825 -11.196  0.00  0.00    +0.000 A 
ATOM      5  C   UNL     1     -36.427  -7.113  -9.989  0.00  0.00    +0.000 A 
ATOM      6  C   UNL     1     -36.754  -6.370  -8.857  0.00  0.00    +0.000 A 
ATOM      7  C   UNL     1     -37.833  -5.518  -8.956  0.00  0.00    +0.000 A 
ENDROOT
BRANCH   5   8
ATOM      8  C   UNL     1     -35.763  -8.382  -9.722  0.00  0.00    +0.000 C 
ATOM      9  C   UNL     1     -35.298  -9.208 -10.612  0.00  0.00    +0.000 C 
BRANCH   9  10
ATOM     10  C   UNL     1     -35.591 -10.642 -10.663  0.00  0.00    +0.000 A 
ATOM     11  C   UNL     1     -36.038 -11.168 -11.851  0.00  0.00    +0.000 A 
ATOM     12  C   UNL     1     -36.038 -12.543 -12.001  0.00  0.00    +0.000 A 
ATOM     13  O   UNL     1     -36.077 -13.070 -13.292  0.00  0.00    +0.000 OA
ATOM     14  C   UNL     1     -35.795 -13.335 -10.887  0.00  0.00    +0.000 A 
ATOM     15  C   UNL     1     -35.621 -12.763  -9.634  0.00  0.00    +0.000 A 
ATOM     16  O   UNL     1     -35.656 -13.515  -8.463  0.00  0.00    +0.000 OA
ATOM     17  C   UNL     1     -35.683 -11.388  -9.520  0.00  0.00    +0.000 A 
ENDBRANCH   9  10
ENDBRANCH   5   8
BRANCH   6  18
ATOM     18  O   UNL     1     -35.691  -6.168  -7.997  0.00  0.00    +0.000 OA
BRANCH  18  19
ATOM     19  C   UNL     1     -35.410  -4.986  -7.302  0.00  0.00    +0.000 C 
BRANCH  19  20
ATOM     20  C   UNL     1     -34.926  -5.676  -5.877  0.00  0.00    +0.000 C 
ATOM     21  C   UNL     1     -33.432  -5.017  -5.957  0.00  0.00    +0.000 C 
ATOM     22  N   UNL     1     -33.362  -3.696  -5.903  0.00  0.00    +0.000 NA
ATOM     23  C   UNL     1     -34.305  -2.734  -5.617  0.00  0.00    +0.000 C 
ATOM     24  C   UNL     1     -35.657  -3.427  -5.682  0.00  0.00    +0.000 C 
ATOM     25  O   UNL     1     -35.495  -4.569  -5.014  0.00  0.00    +0.000 OA
BRANCH  22  26
ATOM     26  C   UNL     1     -32.033  -3.260  -5.610  0.00  0.00    +0.000 C 
BRANCH  26  27
ATOM     27  C   UNL     1     -31.661  -3.918  -4.340  0.00  0.00    +0.000 A 
ATOM     28  C   UNL     1     -30.497  -4.670  -4.371  0.00  0.00    +0.000 A 
ATOM     29  C   UNL     1     -29.930  -5.095  -3.202  0.00  0.00    +0.000 A 
ATOM     30  C   UNL     1     -30.770  -5.282  -2.114  0.00  0.00    +0.000 A 
ATOM     31  C   UNL     1     -32.065  -4.801  -2.175  0.00  0.00    +0.000 A 
ATOM     32  C   UNL     1     -32.405  -3.930  -3.202  0.00  0.00    +0.000 A 
ENDBRANCH  26  27
ENDBRANCH  22  26
ENDBRANCH  19  20
ENDBRANCH  18  19
ENDBRANCH   6  18
TORSDOF 7
ENDMDL
MODEL 6
REMARK VINA RESULT:      -6.7     14.362     17.587
REMARK  Name = 
REMARK  7 active torsions:
REMARK  status: ('A' for Active; 'I' for Inactive)
REMARK    1  A    between atoms: C_5  and  C_6
REMARK    2  A    between atoms: C_7  and  C_8
REMARK    3  A    between atoms: C_16  and  O_17
REMARK    4  A    between atoms: O_17  and  C_18
REMARK    5  A    between atoms: C_18  and  C_19
REMARK    6  A    between atoms: N_21  and  C_22
REMARK    7  A    between atoms: C_22  and  C_23
REMARK                            x       y       z     vdW  Elec       q    Type
REMARK                         _______ _______ _______ _____ _____    ______ ____
ROOT
ATOM      1  O   UNL     1     -40.144  -1.937 -11.281  0.00  0.00    +0.000 OA
ATOM      2  C   UNL     1     -39.454  -2.803 -11.356  0.00  0.00    +0.000 A 
ATOM      3  C   UNL     1     -38.874  -3.298 -12.520  0.00  0.00    +0.000 A 
ATOM      4  C   UNL     1     -38.149  -4.484 -12.505  0.00  0.00    +0.000 A 
ATOM      5  C   UNL     1     -38.033  -5.218 -11.331  0.00  0.00    +0.000 A 
ATOM      6  C   UNL     1     -38.397  -4.631 -10.120  0.00  0.00    +0.000 A 
ATOM      7  C   UNL     1     -39.044  -3.415 -10.183  0.00  0.00    +0.000 A 
ENDROOT
BRANCH   5   8
ATOM      8  C   UNL     1     -37.949  -6.671 -11.309  0.00  0.00    +0.000 C 
ATOM      9  C   UNL     1     -36.961  -7.391 -11.753  0.00  0.00    +0.000 C 
BRANCH   9  10
ATOM     10  C   UNL     1     -37.091  -8.521 -12.676  0.00  0.00    +0.000 A 
ATOM     11  C   UNL     1     -38.031  -9.482 -12.392  0.00  0.00    +0.000 A 
ATOM     12  C   UNL     1     -38.367 -10.384 -13.385  0.00  0.00    +0.000 A 
ATOM     13  O   UNL     1     -39.576 -11.072 -13.276  0.00  0.00    +0.000 OA
ATOM     14  C   UNL     1     -37.599 -10.420 -14.541  0.00  0.00    +0.000 A 
ATOM     15  C   UNL     1     -36.476  -9.615 -14.672  0.00  0.00    +0.000 A 
ATOM     16  O   UNL     1     -35.531  -9.816 -15.674  0.00  0.00    +0.000 OA
ATOM     17  C   UNL     1     -36.144  -8.767 -13.633  0.00  0.00    +0.000 A 
ENDBRANCH   9  10
ENDBRANCH   5   8
BRANCH   6  18
ATOM     18  O   UNL     1     -37.623  -5.036  -9.050  0.00  0.00    +0.000 OA
BRANCH  18  19
ATOM     19  C   UNL     1     -38.062  -5.190  -7.730  0.00  0.00    +0.000 C 
BRANCH  19  20
ATOM     20  C   UNL     1     -36.640  -5.742  -7.086  0.00  0.00    +0.000 C 
ATOM     21  C   UNL     1     -35.982  -4.247  -7.018  0.00  0.00    +0.000 C 
ATOM     22  N   UNL     1     -36.571  -3.375  -6.214  0.00  0.00    +0.000 NA
ATOM     23  C   UNL     1     -37.557  -3.517  -5.264  0.00  0.00    +0.000 C 
ATOM     24  C   UNL     1     -38.176  -4.888  -5.491  0.00  0.00    +0.000 C 
ATOM     25  O   UNL     1     -37.142  -5.713  -5.657  0.00  0.00    +0.000 OA
BRANCH  22  26
ATOM     26  C   UNL     1     -35.720  -2.256  -5.954  0.00  0.00    +0.000 C 
BRANCH  26  27
ATOM     27  C   UNL     1     -34.555  -2.795  -5.221  0.00  0.00    +0.000 A 
ATOM     28  C   UNL     1     -33.330  -2.657  -5.855  0.00  0.00    +0.000 A 
ATOM     29  C   UNL     1     -32.175  -2.877  -5.158  0.00  0.00    +0.000 A 
ATOM     30  C   UNL     1     -32.232  -3.754  -4.086  0.00  0.00    +0.000 A 
ATOM     31  C   UNL     1     -33.466  -4.162  -3.616  0.00  0.00    +0.000 A 
ATOM     32  C   UNL     1     -34.601  -3.491  -4.054  0.00  0.00    +0.000 A 
ENDBRANCH  26  27
ENDBRANCH  22  26
ENDBRANCH  19  20
ENDBRANCH  18  19
ENDBRANCH   6  18
TORSDOF 7
ENDMDL
MODEL 7
REMARK VINA RESULT:      -6.7     14.763     17.526
REMARK  Name = 
REMARK  7 active torsions:
REMARK  status: ('A' for Active; 'I' for Inactive)
REMARK    1  A    between atoms: C_5  and  C_6
REMARK    2  A    between atoms: C_7  and  C_8
REMARK    3  A    between atoms: C_16  and  O_17
REMARK    4  A    between atoms: O_17  and  C_18
REMARK    5  A    between atoms: C_18  and  C_19
REMARK    6  A    between atoms: N_21  and  C_22
REMARK    7  A    between atoms: C_22  and  C_23
REMARK                            x       y       z     vdW  Elec       q    Type
REMARK                         _______ _______ _______ _____ _____    ______ ____
ROOT
ATOM      1  O   UNL     1     -40.891  -5.220  -7.307  0.00  0.00    +0.000 OA
ATOM      2  C   UNL     1     -40.041  -5.437  -7.987  0.00  0.00    +0.000 A 
ATOM      3  C   UNL     1     -40.118  -5.661  -9.357  0.00  0.00    +0.000 A 
ATOM      4  C   UNL     1     -39.002  -6.075 -10.076  0.00  0.00    +0.000 A 
ATOM      5  C   UNL     1     -37.801  -6.318  -9.421  0.00  0.00    +0.000 A 
ATOM      6  C   UNL     1     -37.638  -5.878  -8.108  0.00  0.00    +0.000 A 
ATOM      7  C   UNL     1     -38.759  -5.401  -7.463  0.00  0.00    +0.000 A 
ENDROOT
BRANCH   5   8
ATOM      8  C   UNL     1     -36.856  -7.340  -9.848  0.00  0.00    +0.000 C 
ATOM      9  C   UNL     1     -36.027  -7.252 -10.846  0.00  0.00    +0.000 C 
BRANCH   9  10
ATOM     10  C   UNL     1     -35.881  -8.248 -11.910  0.00  0.00    +0.000 A 
ATOM     11  C   UNL     1     -35.699  -9.559 -11.546  0.00  0.00    +0.000 A 
ATOM     12  C   UNL     1     -35.852 -10.536 -12.514  0.00  0.00    +0.000 A 
ATOM     13  O   UNL     1     -36.088 -11.848 -12.103  0.00  0.00    +0.000 OA
ATOM     14  C   UNL     1     -35.969 -10.147 -13.841  0.00  0.00    +0.000 A 
ATOM     15  C   UNL     1     -35.868  -8.809 -14.200  0.00  0.00    +0.000 A 
ATOM     16  O   UNL     1     -35.698  -8.406 -15.521  0.00  0.00    +0.000 OA
ATOM     17  C   UNL     1     -35.660  -7.871 -13.207  0.00  0.00    +0.000 A 
ENDBRANCH   9  10
ENDBRANCH   5   8
BRANCH   6  18
ATOM     18  O   UNL     1     -36.350  -5.476  -7.812  0.00  0.00    +0.000 OA
BRANCH  18  19
ATOM     19  C   UNL     1     -35.949  -4.786  -6.661  0.00  0.00    +0.000 C 
BRANCH  19  20
ATOM     20  C   UNL     1     -34.818  -5.873  -6.133  0.00  0.00    +0.000 C 
ATOM     21  C   UNL     1     -33.645  -4.740  -6.020  0.00  0.00    +0.000 C 
ATOM     22  N   UNL     1     -33.837  -3.773  -5.135  0.00  0.00    +0.000 NA
ATOM     23  C   UNL     1     -34.773  -3.608  -4.139  0.00  0.00    +0.000 C 
ATOM     24  C   UNL     1     -35.868  -4.629  -4.407  0.00  0.00    +0.000 C 
ATOM     25  O   UNL     1     -35.225  -5.765  -4.678  0.00  0.00    +0.000 OA
BRANCH  22  26
ATOM     26  C   UNL     1     -32.621  -3.073  -4.862  0.00  0.00    +0.000 C 
BRANCH  26  27
ATOM     27  C   UNL     1     -31.880  -3.910  -3.896  0.00  0.00    +0.000 A 
ATOM     28  C   UNL     1     -30.746  -4.537  -4.389  0.00  0.00    +0.000 A 
ATOM     29  C   UNL     1     -29.856  -5.110  -3.525  0.00  0.00    +0.000 A 
ATOM     30  C   UNL     1     -30.344  -5.562  -2.309  0.00  0.00    +0.000 A 
ATOM     31  C   UNL     1     -31.619  -5.198  -1.919  0.00  0.00    +0.000 A 
ATOM     32  C   UNL     1     -32.269  -4.192  -2.624  0.00  0.00    +0.000 A 
ENDBRANCH  26  27
ENDBRANCH  22  26
ENDBRANCH  19  20
ENDBRANCH  18  19
ENDBRANCH   6  18
TORSDOF 7
ENDMDL
MODEL 8
REMARK VINA RESULT:      -6.6     15.692     19.477
REMARK  Name = 
REMARK  7 active torsions:
REMARK  status: ('A' for Active; 'I' for Inactive)
REMARK    1  A    between atoms: C_5  and  C_6
REMARK    2  A    between atoms: C_7  and  C_8
REMARK    3  A    between atoms: C_16  and  O_17
REMARK    4  A    between atoms: O_17  and  C_18
REMARK    5  A    between atoms: C_18  and  C_19
REMARK    6  A    between atoms: N_21  and  C_22
REMARK    7  A    between atoms: C_22  and  C_23
REMARK                            x       y       z     vdW  Elec       q    Type
REMARK                         _______ _______ _______ _____ _____    ______ ____
ROOT
ATOM      1  O   UNL     1     -38.944  -5.028  -5.452  0.00  0.00    +0.000 OA
ATOM      2  C   UNL     1     -38.201  -5.807  -5.182  0.00  0.00    +0.000 A 
ATOM      3  C   UNL     1     -38.113  -6.475  -3.965  0.00  0.00    +0.000 A 
ATOM      4  C   UNL     1     -37.043  -7.321  -3.693  0.00  0.00    +0.000 A 
ATOM      5  C   UNL     1     -36.019  -7.473  -4.621  0.00  0.00    +0.000 A 
ATOM      6  C   UNL     1     -36.202  -7.007  -5.922  0.00  0.00    +0.000 A 
ATOM      7  C   UNL     1     -37.321  -6.239  -6.161  0.00  0.00    +0.000 A 
ENDROOT
BRANCH   5   8
ATOM      8  C   UNL     1     -34.633  -7.708  -4.241  0.00  0.00    +0.000 C 
ATOM      9  C   UNL     1     -34.130  -7.581  -3.048  0.00  0.00    +0.000 C 
BRANCH   9  10
ATOM     10  C   UNL     1     -32.928  -6.813  -2.720  0.00  0.00    +0.000 A 
ATOM     11  C   UNL     1     -31.912  -6.777  -3.643  0.00  0.00    +0.000 A 
ATOM     12  C   UNL     1     -30.912  -5.836  -3.482  0.00  0.00    +0.000 A 
ATOM     13  O   UNL     1     -30.130  -5.501  -4.588  0.00  0.00    +0.000 OA
ATOM     14  C   UNL     1     -30.857  -5.118  -2.295  0.00  0.00    +0.000 A 
ATOM     15  C   UNL     1     -31.746  -5.385  -1.263  0.00  0.00    +0.000 A 
ATOM     16  O   UNL     1     -31.554  -4.898   0.027  0.00  0.00    +0.000 OA
ATOM     17  C   UNL     1     -32.695  -6.372  -1.445  0.00  0.00    +0.000 A 
ENDBRANCH   9  10
ENDBRANCH   5   8
BRANCH   6  18
ATOM     18  O   UNL     1     -35.582  -7.782  -6.883  0.00  0.00    +0.000 OA
BRANCH  18  19
ATOM     19  C   UNL     1     -35.622  -7.566  -8.265  0.00  0.00    +0.000 C 
BRANCH  19  20
ATOM     20  C   UNL     1     -36.515  -8.899  -8.673  0.00  0.00    +0.000 C 
ATOM     21  C   UNL     1     -37.616  -8.022  -9.504  0.00  0.00    +0.000 C 
ATOM     22  N   UNL     1     -37.179  -7.385 -10.580  0.00  0.00    +0.000 NA
ATOM     23  C   UNL     1     -35.985  -7.442 -11.263  0.00  0.00    +0.000 C 
ATOM     24  C   UNL     1     -35.007  -8.173 -10.355  0.00  0.00    +0.000 C 
ATOM     25  O   UNL     1     -35.682  -9.227  -9.894  0.00  0.00    +0.000 OA
BRANCH  22  26
ATOM     26  C   UNL     1     -38.264  -6.973 -11.413  0.00  0.00    +0.000 C 
BRANCH  26  27
ATOM     27  C   UNL     1     -38.330  -5.501 -11.293  0.00  0.00    +0.000 A 
ATOM     28  C   UNL     1     -38.010  -4.789 -12.438  0.00  0.00    +0.000 A 
ATOM     29  C   UNL     1     -38.292  -3.454 -12.510  0.00  0.00    +0.000 A 
ATOM     30  C   UNL     1     -38.335  -2.743 -11.320  0.00  0.00    +0.000 A 
ATOM     31  C   UNL     1     -38.346  -3.436 -10.124  0.00  0.00    +0.000 A 
ATOM     32  C   UNL     1     -38.573  -4.806 -10.149  0.00  0.00    +0.000 A 
ENDBRANCH  26  27
ENDBRANCH  22  26
ENDBRANCH  19  20
ENDBRANCH  18  19
ENDBRANCH   6  18
TORSDOF 7
ENDMDL
MODEL 9
REMARK VINA RESULT:      -6.6     27.188     29.678
REMARK  Name = 
REMARK  7 active torsions:
REMARK  status: ('A' for Active; 'I' for Inactive)
REMARK    1  A    between atoms: C_5  and  C_6
REMARK    2  A    between atoms: C_7  and  C_8
REMARK    3  A    between atoms: C_16  and  O_17
REMARK    4  A    between atoms: O_17  and  C_18
REMARK    5  A    between atoms: C_18  and  C_19
REMARK    6  A    between atoms: N_21  and  C_22
REMARK    7  A    between atoms: C_22  and  C_23
REMARK                            x       y       z     vdW  Elec       q    Type
REMARK                         _______ _______ _______ _____ _____    ______ ____
ROOT
ATOM      1  O   UNL     1      -5.054  20.930   5.013  0.00  0.00    +0.000 OA
ATOM      2  C   UNL     1      -4.755  20.055   4.400  0.00  0.00    +0.000 A 
ATOM      3  C   UNL     1      -5.605  19.230   3.670  0.00  0.00    +0.000 A 
ATOM      4  C   UNL     1      -5.128  18.073   3.065  0.00  0.00    +0.000 A 
ATOM      5  C   UNL     1      -3.799  17.698   3.224  0.00  0.00    +0.000 A 
ATOM      6  C   UNL     1      -2.888  18.616   3.743  0.00  0.00    +0.000 A 
ATOM      7  C   UNL     1      -3.403  19.786   4.259  0.00  0.00    +0.000 A 
ENDROOT
BRANCH   5   8
ATOM      8  C   UNL     1      -3.367  16.308   3.273  0.00  0.00    +0.000 C 
ATOM      9  C   UNL     1      -4.009  15.323   3.828  0.00  0.00    +0.000 C 
BRANCH   9  10
ATOM     10  C   UNL     1      -3.433  14.377   4.786  0.00  0.00    +0.000 A 
ATOM     11  C   UNL     1      -2.478  14.841   5.657  0.00  0.00    +0.000 A 
ATOM     12  C   UNL     1      -2.142  14.053   6.743  0.00  0.00    +0.000 A 
ATOM     13  O   UNL     1      -1.517  14.657   7.835  0.00  0.00    +0.000 OA
ATOM     14  C   UNL     1      -2.616  12.750   6.794  0.00  0.00    +0.000 A 
ATOM     15  C   UNL     1      -3.358  12.224   5.744  0.00  0.00    +0.000 A 
ATOM     16  O   UNL     1      -3.609  10.860   5.623  0.00  0.00    +0.000 OA
ATOM     17  C   UNL     1      -3.624  13.028   4.653  0.00  0.00    +0.000 A 
ENDBRANCH   9  10
ENDBRANCH   5   8
BRANCH   6  18
ATOM     18  O   UNL     1      -1.619  18.504   3.209  0.00  0.00    +0.000 OA
BRANCH  18  19
ATOM     19  C   UNL     1      -0.922  19.510   2.529  0.00  0.00    +0.000 C 
BRANCH  19  20
ATOM     20  C   UNL     1       0.328  19.678   3.601  0.00  0.00    +0.000 C 
ATOM     21  C   UNL     1       0.824  18.132   3.409  0.00  0.00    +0.000 C 
ATOM     22  N   UNL     1       1.261  17.794   2.206  0.00  0.00    +0.000 NA
ATOM     23  C   UNL     1       1.551  18.542   1.087  0.00  0.00    +0.000 C 
ATOM     24  C   UNL     1       0.948  19.918   1.323  0.00  0.00    +0.000 C 
ATOM     25  O   UNL     1       1.289  20.237   2.572  0.00  0.00    +0.000 OA
BRANCH  22  26
ATOM     26  C   UNL     1       1.996  16.569   2.249  0.00  0.00    +0.000 C 
BRANCH  26  27
ATOM     27  C   UNL     1       0.987  15.492   2.315  0.00  0.00    +0.000 A 
ATOM     28  C   UNL     1       1.270  14.454   3.189  0.00  0.00    +0.000 A 
ATOM     29  C   UNL     1       0.294  13.556   3.519  0.00  0.00    +0.000 A 
ATOM     30  C   UNL     1      -0.715  13.339   2.593  0.00  0.00    +0.000 A 
ATOM     31  C   UNL     1      -0.836  14.198   1.517  0.00  0.00    +0.000 A 
ATOM     32  C   UNL     1      -0.119  15.388   1.530  0.00  0.00    +0.000 A 
ENDBRANCH  26  27
ENDBRANCH  22  26
ENDBRANCH  19  20
ENDBRANCH  18  19
ENDBRANCH   6  18
TORSDOF 7
ENDMDL
MODEL 10
REMARK VINA RESULT:      -6.4     26.422     29.490
REMARK  Name = 
REMARK  7 active torsions:
REMARK  status: ('A' for Active; 'I' for Inactive)
REMARK    1  A    between atoms: C_5  and  C_6
REMARK    2  A    between atoms: C_7  and  C_8
REMARK    3  A    between atoms: C_16  and  O_17
REMARK    4  A    between atoms: O_17  and  C_18
REMARK    5  A    between atoms: C_18  and  C_19
REMARK    6  A    between atoms: N_21  and  C_22
REMARK    7  A    between atoms: C_22  and  C_23
REMARK                            x       y       z     vdW  Elec       q    Type
REMARK                         _______ _______ _______ _____ _____    ______ ____
ROOT
ATOM      1  O   UNL     1      -1.204  14.781   8.660  0.00  0.00    +0.000 OA
ATOM      2  C   UNL     1      -1.355  15.029   7.589  0.00  0.00    +0.000 A 
ATOM      3  C   UNL     1      -0.810  16.114   6.909  0.00  0.00    +0.000 A 
ATOM      4  C   UNL     1      -1.195  16.404   5.605  0.00  0.00    +0.000 A 
ATOM      5  C   UNL     1      -2.170  15.637   4.978  0.00  0.00    +0.000 A 
ATOM      6  C   UNL     1      -2.550  14.422   5.543  0.00  0.00    +0.000 A 
ATOM      7  C   UNL     1      -2.077  14.142   6.807  0.00  0.00    +0.000 A 
ENDROOT
BRANCH   5   8
ATOM      8  C   UNL     1      -3.108  16.185   4.008  0.00  0.00    +0.000 C 
ATOM      9  C   UNL     1      -2.889  17.186   3.207  0.00  0.00    +0.000 C 
BRANCH   9  10
ATOM     10  C   UNL     1      -3.767  18.348   3.052  0.00  0.00    +0.000 A 
ATOM     11  C   UNL     1      -3.196  19.596   3.071  0.00  0.00    +0.000 A 
ATOM     12  C   UNL     1      -3.952  20.671   2.639  0.00  0.00    +0.000 A 
ATOM     13  O   UNL     1      -3.291  21.838   2.255  0.00  0.00    +0.000 OA
ATOM     14  C   UNL     1      -5.308  20.482   2.410  0.00  0.00    +0.000 A 
ATOM     15  C   UNL     1      -5.909  19.258   2.673  0.00  0.00    +0.000 A 
ATOM     16  O   UNL     1      -7.291  19.105   2.728  0.00  0.00    +0.000 OA
ATOM     17  C   UNL     1      -5.126  18.227   3.156  0.00  0.00    +0.000 A 
ENDBRANCH   9  10
ENDBRANCH   5   8
BRANCH   6  18
ATOM     18  O   UNL     1      -2.876  13.453   4.613  0.00  0.00    +0.000 OA
BRANCH  18  19
ATOM     19  C   UNL     1      -2.159  12.278   4.363  0.00  0.00    +0.000 C 
BRANCH  19  20
ATOM     20  C   UNL     1      -2.729  11.988   2.836  0.00  0.00    +0.000 C 
ATOM     21  C   UNL     1      -1.685  13.039   2.146  0.00  0.00    +0.000 C 
ATOM     22  N   UNL     1      -0.397  12.748   2.245  0.00  0.00    +0.000 NA
ATOM     23  C   UNL     1       0.262  11.619   2.679  0.00  0.00    +0.000 C 
ATOM     24  C   UNL     1      -0.773  10.771   3.403  0.00  0.00    +0.000 C 
ATOM     25  O   UNL     1      -1.845  10.780   2.610  0.00  0.00    +0.000 OA
BRANCH  22  26
ATOM     26  C   UNL     1       0.378  13.507   1.315  0.00  0.00    +0.000 C 
BRANCH  26  27
ATOM     27  C   UNL     1       0.649  14.801   1.974  0.00  0.00    +0.000 A 
ATOM     28  C   UNL     1       0.315  15.931   1.244  0.00  0.00    +0.000 A 
ATOM     29  C   UNL     1       0.279  17.151   1.857  0.00  0.00    +0.000 A 
ATOM     30  C   UNL     1       1.095  17.338   2.962  0.00  0.00    +0.000 A 
ATOM     31  C   UNL     1       1.704  16.239   3.541  0.00  0.00    +0.000 A 
ATOM     32  C   UNL     1       1.282  14.970   3.167  0.00  0.00    +0.000 A 
ENDBRANCH  26  27
ENDBRANCH  22  26
ENDBRANCH  19  20
ENDBRANCH  18  19
ENDBRANCH   6  18
TORSDOF 7
ENDMDL
