MODEL 1
REMARK VINA RESULT:      -7.8      0.000      0.000
REMARK  Name = 
REMARK  5 active torsions:
REMARK  status: ('A' for Active; 'I' for Inactive)
REMARK    1  A    between atoms: C_2  and  C_3
REMARK    2  A    between atoms: C_14  and  O_15
REMARK    3  A    between atoms: O_15  and  C_16
REMARK    4  A    between atoms: C_22  and  C_23
REMARK    5  A    between atoms: C_24  and  C_25
REMARK                            x       y       z     vdW  Elec       q    Type
REMARK                         _______ _______ _______ _____ _____    ______ ____
ROOT
ATOM      1  C   UNL     1     -30.718  -4.888  -5.176  0.00  0.00    +0.000 A 
ATOM      2  C   UNL     1     -29.564  -4.991  -4.394  0.00  0.00    +0.000 A 
ATOM      3  C   UNL     1     -28.458  -4.210  -4.547  0.00  0.00    +0.000 A 
ATOM      4  O   UNL     1     -27.507  -4.255  -3.520  0.00  0.00    +0.000 OA
ATOM      5  C   UNL     1     -28.596  -3.090  -5.360  0.00  0.00    +0.000 A 
ATOM      6  C   UNL     1     -29.778  -2.954  -6.083  0.00  0.00    +0.000 A 
ATOM      7  C   UNL     1     -30.941  -3.609  -5.679  0.00  0.00    +0.000 A 
ENDROOT
BRANCH   7   8
ATOM      8  C   UNL     1     -32.202  -2.880  -5.459  0.00  0.00    +0.000 C 
ATOM      9  C   UNL     1     -33.012  -2.512  -6.420  0.00  0.00    +0.000 C 
BRANCH   9  10
ATOM     10  C   UNL     1     -34.416  -2.884  -6.548  0.00  0.00    +0.000 A 
ATOM     11  C   UNL     1     -34.812  -4.107  -7.081  0.00  0.00    +0.000 A 
ATOM     12  C   UNL     1     -36.126  -4.333  -7.433  0.00  0.00    +0.000 A 
ATOM     13  O   UNL     1     -36.616  -5.541  -7.880  0.00  0.00    +0.000 OA
ATOM     14  C   UNL     1     -37.000  -3.265  -7.281  0.00  0.00    +0.000 A 
ATOM     15  C   UNL     1     -36.650  -2.141  -6.545  0.00  0.00    +0.000 A 
ATOM     16  O   UNL     1     -37.449  -0.993  -6.524  0.00  0.00    +0.000 OA
ATOM     17  C   UNL     1     -35.435  -2.216  -5.875  0.00  0.00    +0.000 A 
ENDBRANCH   9  10
ENDBRANCH   7   8
BRANCH   1  18
ATOM     18  O   UNL     1     -31.753  -5.636  -4.787  0.00  0.00    +0.000 OA
BRANCH  18  30
ATOM     19  C   UNL     1     -35.875  -7.301  -3.213  0.00  0.00    +0.000 A 
ATOM     20  C   UNL     1     -35.521  -6.238  -4.038  0.00  0.00    +0.000 A 
ATOM     21  C   UNL     1     -36.393  -5.024  -3.934  0.00  0.00    +0.000 C 
ATOM     22  N   UNL     1     -34.178  -6.125  -4.172  0.00  0.00    +0.000 NA
ATOM     23  C   UNL     1     -33.296  -6.998  -3.732  0.00  0.00    +0.000 A 
ATOM     24  N   UNL     1     -33.610  -7.689  -2.603  0.00  0.00    +0.000 N 
ATOM     25  C   UNL     1     -34.922  -8.025  -2.503  0.00  0.00    +0.000 A 
ATOM     26  O   UNL     1     -35.228  -8.815  -1.580  0.00  0.00    +0.000 OA
ATOM     27  C   UNL     1     -32.770  -7.535  -1.412  0.00  0.00    +0.000 C 
ATOM     28  C   UNL     1     -32.537  -6.057  -1.220  0.00  0.00    +0.000 C 
ATOM     29  C   UNL     1     -32.233  -5.304  -2.490  0.00  0.00    +0.000 C 
ATOM     30  C   UNL     1     -31.767  -6.505  -3.522  0.00  0.00    +0.000 C 
BRANCH  19  32
ATOM     31  C   UNL     1     -37.622  -8.211  -3.693  0.00  0.00    +0.000 C 
ATOM     32  C   UNL     1     -37.290  -7.698  -3.156  0.00  0.00    +0.000 C 
ENDBRANCH  19  32
ENDBRANCH  18  30
ENDBRANCH   1  18
TORSDOF 5
ENDMDL
MODEL 2
REMARK VINA RESULT:      -7.5     26.935     30.871
REMARK  Name = 
REMARK  5 active torsions:
REMARK  status: ('A' for Active; 'I' for Inactive)
REMARK    1  A    between atoms: C_2  and  C_3
REMARK    2  A    between atoms: C_14  and  O_15
REMARK    3  A    between atoms: O_15  and  C_16
REMARK    4  A    between atoms: C_22  and  C_23
REMARK    5  A    between atoms: C_24  and  C_25
REMARK                            x       y       z     vdW  Elec       q    Type
REMARK                         _______ _______ _______ _____ _____    ______ ____
ROOT
ATOM      1  C   UNL     1     -14.544  15.242   1.101  0.00  0.00    +0.000 A 
ATOM      2  C   UNL     1     -15.605  14.440   1.530  0.00  0.00    +0.000 A 
ATOM      3  C   UNL     1     -15.459  13.246   2.169  0.00  0.00    +0.000 A 
ATOM      4  O   UNL     1     -16.604  12.707   2.768  0.00  0.00    +0.000 OA
ATOM      5  C   UNL     1     -14.184  12.944   2.636  0.00  0.00    +0.000 A 
ATOM      6  C   UNL     1     -13.140  13.787   2.266  0.00  0.00    +0.000 A 
ATOM      7  C   UNL     1     -13.390  15.099   1.867  0.00  0.00    +0.000 A 
ENDROOT
BRANCH   7   8
ATOM      8  C   UNL     1     -12.716  16.243   2.505  0.00  0.00    +0.000 C 
ATOM      9  C   UNL     1     -11.967  17.104   1.862  0.00  0.00    +0.000 C 
BRANCH   9  10
ATOM     10  C   UNL     1     -12.176  18.547   1.805  0.00  0.00    +0.000 A 
ATOM     11  C   UNL     1     -13.411  19.127   2.076  0.00  0.00    +0.000 A 
ATOM     12  C   UNL     1     -13.655  20.448   1.766  0.00  0.00    +0.000 A 
ATOM     13  O   UNL     1     -14.815  21.121   2.084  0.00  0.00    +0.000 OA
ATOM     14  C   UNL     1     -12.631  21.133   1.125  0.00  0.00    +0.000 A 
ATOM     15  C   UNL     1     -11.342  20.621   1.067  0.00  0.00    +0.000 A 
ATOM     16  O   UNL     1     -10.347  21.213   0.284  0.00  0.00    +0.000 OA
ATOM     17  C   UNL     1     -11.124  19.458   1.796  0.00  0.00    +0.000 A 
ENDBRANCH   9  10
ENDBRANCH   7   8
BRANCH   1  18
ATOM     18  O   UNL     1     -14.878  16.445   0.625  0.00  0.00    +0.000 OA
BRANCH  18  30
ATOM     19  C   UNL     1     -13.588  17.975  -3.644  0.00  0.00    +0.000 A 
ATOM     20  C   UNL     1     -12.987  18.009  -2.390  0.00  0.00    +0.000 A 
ATOM     21  C   UNL     1     -12.149  19.220  -2.109  0.00  0.00    +0.000 C 
ATOM     22  N   UNL     1     -13.779  17.470  -1.433  0.00  0.00    +0.000 NA
ATOM     23  C   UNL     1     -14.906  16.828  -1.654  0.00  0.00    +0.000 A 
ATOM     24  N   UNL     1     -15.647  17.219  -2.728  0.00  0.00    +0.000 N 
ATOM     25  C   UNL     1     -14.911  17.577  -3.810  0.00  0.00    +0.000 A 
ATOM     26  O   UNL     1     -15.541  17.767  -4.877  0.00  0.00    +0.000 OA
ATOM     27  C   UNL     1     -16.995  17.753  -2.511  0.00  0.00    +0.000 C 
ATOM     28  C   UNL     1     -16.900  18.760  -1.392  0.00  0.00    +0.000 C 
ATOM     29  C   UNL     1     -16.040  18.324  -0.233  0.00  0.00    +0.000 C 
ATOM     30  C   UNL     1     -15.961  16.686  -0.434  0.00  0.00    +0.000 C 
BRANCH  19  32
ATOM     31  C   UNL     1     -12.349  17.745  -5.233  0.00  0.00    +0.000 C 
ATOM     32  C   UNL     1     -12.768  18.307  -4.819  0.00  0.00    +0.000 C 
ENDBRANCH  19  32
ENDBRANCH  18  30
ENDBRANCH   1  18
TORSDOF 5
ENDMDL
MODEL 3
REMARK VINA RESULT:      -7.5      2.629      6.053
REMARK  Name = 
REMARK  5 active torsions:
REMARK  status: ('A' for Active; 'I' for Inactive)
REMARK    1  A    between atoms: C_2  and  C_3
REMARK    2  A    between atoms: C_14  and  O_15
REMARK    3  A    between atoms: O_15  and  C_16
REMARK    4  A    between atoms: C_22  and  C_23
REMARK    5  A    between atoms: C_24  and  C_25
REMARK                            x       y       z     vdW  Elec       q    Type
REMARK                         _______ _______ _______ _____ _____    ______ ____
ROOT
ATOM      1  C   UNL     1     -35.946  -2.935  -4.611  0.00  0.00    +0.000 A 
ATOM      2  C   UNL     1     -36.754  -3.342  -3.546  0.00  0.00    +0.000 A 
ATOM      3  C   UNL     1     -38.060  -2.990  -3.392  0.00  0.00    +0.000 A 
ATOM      4  O   UNL     1     -38.795  -3.695  -2.430  0.00  0.00    +0.000 OA
ATOM      5  C   UNL     1     -38.679  -2.402  -4.490  0.00  0.00    +0.000 A 
ATOM      6  C   UNL     1     -37.882  -2.063  -5.580  0.00  0.00    +0.000 A 
ATOM      7  C   UNL     1     -36.652  -2.687  -5.786  0.00  0.00    +0.000 A 
ENDROOT
BRANCH   7   8
ATOM      8  C   UNL     1     -36.322  -3.344  -7.062  0.00  0.00    +0.000 C 
ATOM      9  C   UNL     1     -36.895  -4.440  -7.492  0.00  0.00    +0.000 C 
BRANCH   9  10
ATOM     10  C   UNL     1     -37.613  -4.594  -8.753  0.00  0.00    +0.000 A 
ATOM     11  C   UNL     1     -37.659  -5.806  -9.435  0.00  0.00    +0.000 A 
ATOM     12  C   UNL     1     -38.111  -5.869 -10.735  0.00  0.00    +0.000 A 
ATOM     13  O   UNL     1     -38.274  -7.037 -11.448  0.00  0.00    +0.000 OA
ATOM     14  C   UNL     1     -38.458  -4.662 -11.329  0.00  0.00    +0.000 A 
ATOM     15  C   UNL     1     -38.626  -3.507 -10.578  0.00  0.00    +0.000 A 
ATOM     16  O   UNL     1     -38.806  -2.256 -11.178  0.00  0.00    +0.000 OA
ATOM     17  C   UNL     1     -38.552  -3.669  -9.201  0.00  0.00    +0.000 A 
ENDBRANCH   9  10
ENDBRANCH   7   8
BRANCH   1  18
ATOM     18  O   UNL     1     -34.736  -3.496  -4.673  0.00  0.00    +0.000 OA
BRANCH  18  30
ATOM     19  C   UNL     1     -30.101  -4.360  -4.618  0.00  0.00    +0.000 A 
ATOM     20  C   UNL     1     -30.977  -3.886  -5.589  0.00  0.00    +0.000 A 
ATOM     21  C   UNL     1     -30.663  -4.294  -6.996  0.00  0.00    +0.000 C 
ATOM     22  N   UNL     1     -32.255  -3.845  -5.142  0.00  0.00    +0.000 NA
ATOM     23  C   UNL     1     -32.631  -4.055  -3.898  0.00  0.00    +0.000 A 
ATOM     24  N   UNL     1     -31.890  -4.928  -3.161  0.00  0.00    +0.000 N 
ATOM     25  C   UNL     1     -30.557  -4.873  -3.409  0.00  0.00    +0.000 A 
ATOM     26  O   UNL     1     -29.817  -5.521  -2.631  0.00  0.00    +0.000 OA
ATOM     27  C   UNL     1     -32.522  -6.147  -2.649  0.00  0.00    +0.000 C 
ATOM     28  C   UNL     1     -33.295  -6.761  -3.790  0.00  0.00    +0.000 C 
ATOM     29  C   UNL     1     -34.073  -5.771  -4.618  0.00  0.00    +0.000 C 
ATOM     30  C   UNL     1     -34.174  -4.460  -3.619  0.00  0.00    +0.000 C 
BRANCH  19  32
ATOM     31  C   UNL     1     -28.242  -3.556  -4.727  0.00  0.00    +0.000 C 
ATOM     32  C   UNL     1     -28.656  -4.243  -4.867  0.00  0.00    +0.000 C 
ENDBRANCH  19  32
ENDBRANCH  18  30
ENDBRANCH   1  18
TORSDOF 5
ENDMDL
MODEL 4
REMARK VINA RESULT:      -7.1     26.282     29.378
REMARK  Name = 
REMARK  5 active torsions:
REMARK  status: ('A' for Active; 'I' for Inactive)
REMARK    1  A    between atoms: C_2  and  C_3
REMARK    2  A    between atoms: C_14  and  O_15
REMARK    3  A    between atoms: O_15  and  C_16
REMARK    4  A    between atoms: C_22  and  C_23
REMARK    5  A    between atoms: C_24  and  C_25
REMARK                            x       y       z     vdW  Elec       q    Type
REMARK                         _______ _______ _______ _____ _____    ______ ____
ROOT
ATOM      1  C   UNL     1     -13.035  17.921  -3.770  0.00  0.00    +0.000 A 
ATOM      2  C   UNL     1     -11.737  18.269  -4.156  0.00  0.00    +0.000 A 
ATOM      3  C   UNL     1     -11.192  17.982  -5.370  0.00  0.00    +0.000 A 
ATOM      4  O   UNL     1      -9.994  18.631  -5.694  0.00  0.00    +0.000 OA
ATOM      5  C   UNL     1     -12.068  17.543  -6.357  0.00  0.00    +0.000 A 
ATOM      6  C   UNL     1     -13.380  17.265  -5.982  0.00  0.00    +0.000 A 
ATOM      7  C   UNL     1     -13.930  17.832  -4.833  0.00  0.00    +0.000 A 
ENDROOT
BRANCH   7   8
ATOM      8  C   UNL     1     -15.192  18.590  -4.871  0.00  0.00    +0.000 C 
ATOM      9  C   UNL     1     -16.235  18.242  -5.582  0.00  0.00    +0.000 C 
BRANCH   9  10
ATOM     10  C   UNL     1     -17.574  17.980  -5.068  0.00  0.00    +0.000 A 
ATOM     11  C   UNL     1     -17.903  18.172  -3.730  0.00  0.00    +0.000 A 
ATOM     12  C   UNL     1     -19.082  17.677  -3.213  0.00  0.00    +0.000 A 
ATOM     13  O   UNL     1     -19.524  17.901  -1.927  0.00  0.00    +0.000 OA
ATOM     14  C   UNL     1     -19.877  16.940  -4.081  0.00  0.00    +0.000 A 
ATOM     15  C   UNL     1     -19.656  16.950  -5.451  0.00  0.00    +0.000 A 
ATOM     16  O   UNL     1     -20.336  16.086  -6.316  0.00  0.00    +0.000 OA
ATOM     17  C   UNL     1     -18.683  17.837  -5.897  0.00  0.00    +0.000 A 
ENDBRANCH   9  10
ENDBRANCH   7   8
BRANCH   1  18
ATOM     18  O   UNL     1     -13.446  18.413  -2.598  0.00  0.00    +0.000 OA
BRANCH  18  30
ATOM     19  C   UNL     1     -14.782  15.637   0.971  0.00  0.00    +0.000 A 
ATOM     20  C   UNL     1     -15.446  16.176  -0.126  0.00  0.00    +0.000 A 
ATOM     21  C   UNL     1     -16.882  16.538   0.104  0.00  0.00    +0.000 C 
ATOM     22  N   UNL     1     -14.636  16.967  -0.870  0.00  0.00    +0.000 NA
ATOM     23  C   UNL     1     -13.337  17.091  -0.704  0.00  0.00    +0.000 A 
ATOM     24  N   UNL     1     -12.854  16.965   0.562  0.00  0.00    +0.000 N 
ATOM     25  C   UNL     1     -13.490  16.027   1.309  0.00  0.00    +0.000 A 
ATOM     26  O   UNL     1     -12.969  15.744   2.413  0.00  0.00    +0.000 OA
ATOM     27  C   UNL     1     -12.173  18.104   1.185  0.00  0.00    +0.000 C 
ATOM     28  C   UNL     1     -13.029  19.322   0.940  0.00  0.00    +0.000 C 
ATOM     29  C   UNL     1     -13.588  19.419  -0.457  0.00  0.00    +0.000 C 
ATOM     30  C   UNL     1     -12.607  18.403  -1.313  0.00  0.00    +0.000 C 
BRANCH  19  32
ATOM     31  C   UNL     1     -15.550  13.823   1.454  0.00  0.00    +0.000 C 
ATOM     32  C   UNL     1     -15.453  14.578   1.741  0.00  0.00    +0.000 C 
ENDBRANCH  19  32
ENDBRANCH  18  30
ENDBRANCH   1  18
TORSDOF 5
ENDMDL
MODEL 5
REMARK VINA RESULT:      -7.1      2.487      3.330
REMARK  Name = 
REMARK  5 active torsions:
REMARK  status: ('A' for Active; 'I' for Inactive)
REMARK    1  A    between atoms: C_2  and  C_3
REMARK    2  A    between atoms: C_14  and  O_15
REMARK    3  A    between atoms: O_15  and  C_16
REMARK    4  A    between atoms: C_22  and  C_23
REMARK    5  A    between atoms: C_24  and  C_25
REMARK                            x       y       z     vdW  Elec       q    Type
REMARK                         _______ _______ _______ _____ _____    ______ ____
ROOT
ATOM      1  C   UNL     1     -32.029  -6.188  -4.572  0.00  0.00    +0.000 A 
ATOM      2  C   UNL     1     -31.350  -7.111  -3.771  0.00  0.00    +0.000 A 
ATOM      3  C   UNL     1     -30.087  -6.935  -3.294  0.00  0.00    +0.000 A 
ATOM      4  O   UNL     1     -29.660  -7.818  -2.295  0.00  0.00    +0.000 OA
ATOM      5  C   UNL     1     -29.552  -5.655  -3.408  0.00  0.00    +0.000 A 
ATOM      6  C   UNL     1     -30.267  -4.717  -4.147  0.00  0.00    +0.000 A 
ATOM      7  C   UNL     1     -31.637  -4.868  -4.358  0.00  0.00    +0.000 A 
ENDROOT
BRANCH   7   8
ATOM      8  C   UNL     1     -32.596  -3.803  -4.016  0.00  0.00    +0.000 C 
ATOM      9  C   UNL     1     -33.190  -3.040  -4.899  0.00  0.00    +0.000 C 
BRANCH   9  10
ATOM     10  C   UNL     1     -34.630  -2.897  -5.077  0.00  0.00    +0.000 A 
ATOM     11  C   UNL     1     -35.213  -2.783  -6.335  0.00  0.00    +0.000 A 
ATOM     12  C   UNL     1     -36.527  -2.389  -6.473  0.00  0.00    +0.000 A 
ATOM     13  O   UNL     1     -37.204  -2.340  -7.673  0.00  0.00    +0.000 OA
ATOM     14  C   UNL     1     -37.202  -2.064  -5.304  0.00  0.00    +0.000 A 
ATOM     15  C   UNL     1     -36.692  -2.397  -4.056  0.00  0.00    +0.000 A 
ATOM     16  O   UNL     1     -37.272  -1.929  -2.873  0.00  0.00    +0.000 OA
ATOM     17  C   UNL     1     -35.544  -3.180  -4.066  0.00  0.00    +0.000 A 
ENDBRANCH   9  10
ENDBRANCH   7   8
BRANCH   1  18
ATOM     18  O   UNL     1     -33.311  -6.465  -4.822  0.00  0.00    +0.000 OA
BRANCH  18  30
ATOM     19  C   UNL     1     -36.945  -8.320  -7.185  0.00  0.00    +0.000 A 
ATOM     20  C   UNL     1     -36.292  -7.093  -7.237  0.00  0.00    +0.000 A 
ATOM     21  C   UNL     1     -37.160  -5.915  -7.562  0.00  0.00    +0.000 C 
ATOM     22  N   UNL     1     -35.308  -7.002  -6.311  0.00  0.00    +0.000 NA
ATOM     23  C   UNL     1     -34.881  -7.994  -5.559  0.00  0.00    +0.000 A 
ATOM     24  N   UNL     1     -35.788  -8.945  -5.205  0.00  0.00    +0.000 N 
ATOM     25  C   UNL     1     -36.689  -9.243  -6.176  0.00  0.00    +0.000 A 
ATOM     26  O   UNL     1     -37.426 -10.236  -5.969  0.00  0.00    +0.000 OA
ATOM     27  C   UNL     1     -36.101  -9.143  -3.787  0.00  0.00    +0.000 C 
ATOM     28  C   UNL     1     -36.330  -7.778  -3.187  0.00  0.00    +0.000 C 
ATOM     29  C   UNL     1     -35.340  -6.730  -3.626  0.00  0.00    +0.000 C 
ATOM     30  C   UNL     1     -34.082  -7.635  -4.197  0.00  0.00    +0.000 C 
BRANCH  19  32
ATOM     31  C   UNL     1     -37.642  -9.072  -8.936  0.00  0.00    +0.000 C 
ATOM     32  C   UNL     1     -37.875  -8.662  -8.272  0.00  0.00    +0.000 C 
ENDBRANCH  19  32
ENDBRANCH  18  30
ENDBRANCH   1  18
TORSDOF 5
ENDMDL
MODEL 6
REMARK VINA RESULT:      -7.0     14.270     18.004
REMARK  Name = 
REMARK  5 active torsions:
REMARK  status: ('A' for Active; 'I' for Inactive)
REMARK    1  A    between atoms: C_2  and  C_3
REMARK    2  A    between atoms: C_14  and  O_15
REMARK    3  A    between atoms: O_15  and  C_16
REMARK    4  A    between atoms: C_22  and  C_23
REMARK    5  A    between atoms: C_24  and  C_25
REMARK                            x       y       z     vdW  Elec       q    Type
REMARK                         _______ _______ _______ _____ _____    ______ ____
ROOT
ATOM      1  C   UNL     1     -26.946  11.825  -7.588  0.00  0.00    +0.000 A 
ATOM      2  C   UNL     1     -26.393  12.998  -8.111  0.00  0.00    +0.000 A 
ATOM      3  C   UNL     1     -25.884  14.012  -7.358  0.00  0.00    +0.000 A 
ATOM      4  O   UNL     1     -25.128  14.980  -8.031  0.00  0.00    +0.000 OA
ATOM      5  C   UNL     1     -25.680  13.742  -6.009  0.00  0.00    +0.000 A 
ATOM      6  C   UNL     1     -26.170  12.539  -5.506  0.00  0.00    +0.000 A 
ATOM      7  C   UNL     1     -26.416  11.459  -6.354  0.00  0.00    +0.000 A 
ENDROOT
BRANCH   7   8
ATOM      8  C   UNL     1     -25.827  10.132  -6.107  0.00  0.00    +0.000 C 
ATOM      9  C   UNL     1     -24.545   9.917  -5.951  0.00  0.00    +0.000 C 
BRANCH   9  10
ATOM     10  C   UNL     1     -23.914   9.304  -4.787  0.00  0.00    +0.000 A 
ATOM     11  C   UNL     1     -24.243   8.023  -4.356  0.00  0.00    +0.000 A 
ATOM     12  C   UNL     1     -23.837   7.566  -3.120  0.00  0.00    +0.000 A 
ATOM     13  O   UNL     1     -24.042   6.284  -2.657  0.00  0.00    +0.000 OA
ATOM     14  C   UNL     1     -23.141   8.468  -2.325  0.00  0.00    +0.000 A 
ATOM     15  C   UNL     1     -22.626   9.646  -2.847  0.00  0.00    +0.000 A 
ATOM     16  O   UNL     1     -22.075  10.637  -2.029  0.00  0.00    +0.000 OA
ATOM     17  C   UNL     1     -22.739   9.794  -4.224  0.00  0.00    +0.000 A 
ENDBRANCH   9  10
ENDBRANCH   7   8
BRANCH   1  18
ATOM     18  O   UNL     1     -27.261  10.882  -8.479  0.00  0.00    +0.000 OA
BRANCH  18  30
ATOM     19  C   UNL     1     -28.501   7.076 -10.972  0.00  0.00    +0.000 A 
ATOM     20  C   UNL     1     -27.351   7.436 -10.277  0.00  0.00    +0.000 A 
ATOM     21  C   UNL     1     -26.063   6.946 -10.865  0.00  0.00    +0.000 C 
ATOM     22  N   UNL     1     -27.448   8.677  -9.742  0.00  0.00    +0.000 NA
ATOM     23  C   UNL     1     -28.542   9.407  -9.716  0.00  0.00    +0.000 A 
ATOM     24  N   UNL     1     -29.418   9.257 -10.747  0.00  0.00    +0.000 N 
ATOM     25  C   UNL     1     -29.531   7.983 -11.200  0.00  0.00    +0.000 A 
ATOM     26  O   UNL     1     -30.454   7.761 -12.019  0.00  0.00    +0.000 OA
ATOM     27  C   UNL     1     -29.706  10.404 -11.614  0.00  0.00    +0.000 C 
ATOM     28  C   UNL     1     -28.382  11.030 -11.978  0.00  0.00    +0.000 C 
ATOM     29  C   UNL     1     -27.412  11.146 -10.830  0.00  0.00    +0.000 C 
ATOM     30  C   UNL     1     -28.393  11.006  -9.509  0.00  0.00    +0.000 C 
BRANCH  19  32
ATOM     31  C   UNL     1     -28.840   5.078 -10.895  0.00  0.00    +0.000 C 
ATOM     32  C   UNL     1     -28.644   5.679 -11.408  0.00  0.00    +0.000 C 
ENDBRANCH  19  32
ENDBRANCH  18  30
ENDBRANCH   1  18
TORSDOF 5
ENDMDL
MODEL 7
REMARK VINA RESULT:      -7.0      3.849      7.035
REMARK  Name = 
REMARK  5 active torsions:
REMARK  status: ('A' for Active; 'I' for Inactive)
REMARK    1  A    between atoms: C_2  and  C_3
REMARK    2  A    between atoms: C_14  and  O_15
REMARK    3  A    between atoms: O_15  and  C_16
REMARK    4  A    between atoms: C_22  and  C_23
REMARK    5  A    between atoms: C_24  and  C_25
REMARK                            x       y       z     vdW  Elec       q    Type
REMARK                         _______ _______ _______ _____ _____    ______ ____
ROOT
ATOM      1  C   UNL     1     -36.001  -5.337  -6.884  0.00  0.00    +0.000 A 
ATOM      2  C   UNL     1     -37.066  -5.488  -5.992  0.00  0.00    +0.000 A 
ATOM      3  C   UNL     1     -38.380  -5.450  -6.347  0.00  0.00    +0.000 A 
ATOM      4  O   UNL     1     -39.305  -5.887  -5.391  0.00  0.00    +0.000 OA
ATOM      5  C   UNL     1     -38.658  -5.517  -7.708  0.00  0.00    +0.000 A 
ATOM      6  C   UNL     1     -37.586  -5.438  -8.594  0.00  0.00    +0.000 A 
ATOM      7  C   UNL     1     -36.294  -5.757  -8.180  0.00  0.00    +0.000 A 
ENDROOT
BRANCH   7   8
ATOM      8  C   UNL     1     -35.475  -6.751  -8.894  0.00  0.00    +0.000 C 
ATOM      9  C   UNL     1     -35.828  -8.000  -9.071  0.00  0.00    +0.000 C 
BRANCH   9  10
ATOM     10  C   UNL     1     -35.971  -8.676 -10.355  0.00  0.00    +0.000 A 
ATOM     11  C   UNL     1     -36.036 -10.062 -10.459  0.00  0.00    +0.000 A 
ATOM     12  C   UNL     1     -35.908 -10.687 -11.681  0.00  0.00    +0.000 A 
ATOM     13  O   UNL     1     -36.051 -12.044 -11.881  0.00  0.00    +0.000 OA
ATOM     14  C   UNL     1     -35.658  -9.866 -12.772  0.00  0.00    +0.000 A 
ATOM     15  C   UNL     1     -35.822  -8.490 -12.697  0.00  0.00    +0.000 A 
ATOM     16  O   UNL     1     -35.413  -7.640 -13.729  0.00  0.00    +0.000 OA
ATOM     17  C   UNL     1     -36.371  -8.014 -11.513  0.00  0.00    +0.000 A 
ENDBRANCH   9  10
ENDBRANCH   7   8
BRANCH   1  18
ATOM     18  O   UNL     1     -34.783  -5.548  -6.379  0.00  0.00    +0.000 OA
BRANCH  18  30
ATOM     19  C   UNL     1     -30.935  -6.259  -3.749  0.00  0.00    +0.000 A 
ATOM     20  C   UNL     1     -32.256  -6.681  -3.650  0.00  0.00    +0.000 A 
ATOM     21  C   UNL     1     -32.785  -6.821  -2.255  0.00  0.00    +0.000 C 
ATOM     22  N   UNL     1     -33.027  -6.173  -4.642  0.00  0.00    +0.000 NA
ATOM     23  C   UNL     1     -32.579  -5.504  -5.683  0.00  0.00    +0.000 A 
ATOM     24  N   UNL     1     -31.463  -4.746  -5.505  0.00  0.00    +0.000 N 
ATOM     25  C   UNL     1     -30.541  -5.299  -4.676  0.00  0.00    +0.000 A 
ATOM     26  O   UNL     1     -29.424  -4.732  -4.624  0.00  0.00    +0.000 OA
ATOM     27  C   UNL     1     -31.546  -3.294  -5.693  0.00  0.00    +0.000 C 
ATOM     28  C   UNL     1     -32.773  -2.820  -4.954  0.00  0.00    +0.000 C 
ATOM     29  C   UNL     1     -33.985  -3.698  -5.131  0.00  0.00    +0.000 C 
ATOM     30  C   UNL     1     -33.616  -4.558  -6.491  0.00  0.00    +0.000 C 
BRANCH  19  32
ATOM     31  C   UNL     1     -29.542  -7.586  -3.108  0.00  0.00    +0.000 C 
ATOM     32  C   UNL     1     -29.930  -6.905  -2.890  0.00  0.00    +0.000 C 
ENDBRANCH  19  32
ENDBRANCH  18  30
ENDBRANCH   1  18
TORSDOF 5
ENDMDL
MODEL 8
REMARK VINA RESULT:      -7.0      3.772      7.288
REMARK  Name = 
REMARK  5 active torsions:
REMARK  status: ('A' for Active; 'I' for Inactive)
REMARK    1  A    between atoms: C_2  and  C_3
REMARK    2  A    between atoms: C_14  and  O_15
REMARK    3  A    between atoms: O_15  and  C_16
REMARK    4  A    between atoms: C_22  and  C_23
REMARK    5  A    between atoms: C_24  and  C_25
REMARK                            x       y       z     vdW  Elec       q    Type
REMARK                         _______ _______ _______ _____ _____    ______ ____
ROOT
ATOM      1  C   UNL     1     -36.825  -2.783  -4.593  0.00  0.00    +0.000 A 
ATOM      2  C   UNL     1     -36.558  -1.713  -5.451  0.00  0.00    +0.000 A 
ATOM      3  C   UNL     1     -37.513  -0.927  -6.023  0.00  0.00    +0.000 A 
ATOM      4  O   UNL     1     -37.076   0.257  -6.629  0.00  0.00    +0.000 OA
ATOM      5  C   UNL     1     -38.803  -1.051  -5.518  0.00  0.00    +0.000 A 
ATOM      6  C   UNL     1     -39.049  -2.075  -4.608  0.00  0.00    +0.000 A 
ATOM      7  C   UNL     1     -38.008  -2.641  -3.872  0.00  0.00    +0.000 A 
ENDROOT
BRANCH   7   8
ATOM      8  C   UNL     1     -38.054  -2.721  -2.402  0.00  0.00    +0.000 C 
ATOM      9  C   UNL     1     -39.087  -2.363  -1.681  0.00  0.00    +0.000 C 
BRANCH   9  10
ATOM     10  C   UNL     1     -39.818  -3.215  -0.748  0.00  0.00    +0.000 A 
ATOM     11  C   UNL     1     -41.204  -3.170  -0.636  0.00  0.00    +0.000 A 
ATOM     12  C   UNL     1     -41.848  -3.781   0.419  0.00  0.00    +0.000 A 
ATOM     13  O   UNL     1     -43.217  -3.862   0.554  0.00  0.00    +0.000 OA
ATOM     14  C   UNL     1     -41.039  -4.383   1.374  0.00  0.00    +0.000 A 
ATOM     15  C   UNL     1     -39.691  -4.618   1.137  0.00  0.00    +0.000 A 
ATOM     16  O   UNL     1     -38.832  -5.064   2.146  0.00  0.00    +0.000 OA
ATOM     17  C   UNL     1     -39.248  -4.335  -0.149  0.00  0.00    +0.000 A 
ENDBRANCH   9  10
ENDBRANCH   7   8
BRANCH   1  18
ATOM     18  O   UNL     1     -35.761  -3.346  -4.014  0.00  0.00    +0.000 OA
BRANCH  18  30
ATOM     19  C   UNL     1     -31.349  -5.007  -3.990  0.00  0.00    +0.000 A 
ATOM     20  C   UNL     1     -31.927  -3.825  -4.441  0.00  0.00    +0.000 A 
ATOM     21  C   UNL     1     -31.302  -3.229  -5.666  0.00  0.00    +0.000 C 
ATOM     22  N   UNL     1     -33.270  -3.819  -4.268  0.00  0.00    +0.000 NA
ATOM     23  C   UNL     1     -33.953  -4.725  -3.601  0.00  0.00    +0.000 A 
ATOM     24  N   UNL     1     -33.475  -6.000  -3.612  0.00  0.00    +0.000 N 
ATOM     25  C   UNL     1     -32.121  -6.087  -3.574  0.00  0.00    +0.000 A 
ATOM     26  O   UNL     1     -31.639  -7.230  -3.397  0.00  0.00    +0.000 OA
ATOM     27  C   UNL     1     -34.292  -7.065  -4.202  0.00  0.00    +0.000 C 
ATOM     28  C   UNL     1     -34.798  -6.554  -5.528  0.00  0.00    +0.000 C 
ATOM     29  C   UNL     1     -35.282  -5.127  -5.503  0.00  0.00    +0.000 C 
ATOM     30  C   UNL     1     -35.540  -4.860  -3.894  0.00  0.00    +0.000 C 
BRANCH  19  32
ATOM     31  C   UNL     1     -29.486  -4.986  -3.189  0.00  0.00    +0.000 C 
ATOM     32  C   UNL     1     -29.882  -5.074  -3.894  0.00  0.00    +0.000 C 
ENDBRANCH  19  32
ENDBRANCH  18  30
ENDBRANCH   1  18
TORSDOF 5
ENDMDL
MODEL 9
REMARK VINA RESULT:      -6.9      3.932      7.380
REMARK  Name = 
REMARK  5 active torsions:
REMARK  status: ('A' for Active; 'I' for Inactive)
REMARK    1  A    between atoms: C_2  and  C_3
REMARK    2  A    between atoms: C_14  and  O_15
REMARK    3  A    between atoms: O_15  and  C_16
REMARK    4  A    between atoms: C_22  and  C_23
REMARK    5  A    between atoms: C_24  and  C_25
REMARK                            x       y       z     vdW  Elec       q    Type
REMARK                         _______ _______ _______ _____ _____    ______ ____
ROOT
ATOM      1  C   UNL     1     -36.121  -6.657  -6.493  0.00  0.00    +0.000 A 
ATOM      2  C   UNL     1     -36.572  -7.623  -5.588  0.00  0.00    +0.000 A 
ATOM      3  C   UNL     1     -37.812  -8.185  -5.614  0.00  0.00    +0.000 A 
ATOM      4  O   UNL     1     -38.008  -9.319  -4.818  0.00  0.00    +0.000 OA
ATOM      5  C   UNL     1     -38.570  -7.963  -6.759  0.00  0.00    +0.000 A 
ATOM      6  C   UNL     1     -38.083  -7.053  -7.694  0.00  0.00    +0.000 A 
ATOM      7  C   UNL     1     -36.725  -6.741  -7.745  0.00  0.00    +0.000 A 
ENDROOT
BRANCH   7   8
ATOM      8  C   UNL     1     -35.949  -6.863  -8.992  0.00  0.00    +0.000 C 
ATOM      9  C   UNL     1     -35.548  -8.003  -9.496  0.00  0.00    +0.000 C 
BRANCH   9  10
ATOM     10  C   UNL     1     -35.866  -8.512 -10.825  0.00  0.00    +0.000 A 
ATOM     11  C   UNL     1     -35.354  -7.932 -11.982  0.00  0.00    +0.000 A 
ATOM     12  C   UNL     1     -35.865  -8.254 -13.221  0.00  0.00    +0.000 A 
ATOM     13  O   UNL     1     -35.356  -7.796 -14.417  0.00  0.00    +0.000 OA
ATOM     14  C   UNL     1     -36.939  -9.134 -13.237  0.00  0.00    +0.000 A 
ATOM     15  C   UNL     1     -37.287  -9.874 -12.116  0.00  0.00    +0.000 A 
ATOM     16  O   UNL     1     -38.462 -10.631 -12.066  0.00  0.00    +0.000 OA
ATOM     17  C   UNL     1     -36.420  -9.772 -11.035  0.00  0.00    +0.000 A 
ENDBRANCH   9  10
ENDBRANCH   7   8
BRANCH   1  18
ATOM     18  O   UNL     1     -34.830  -6.329  -6.401  0.00  0.00    +0.000 OA
BRANCH  18  30
ATOM     19  C   UNL     1     -30.886  -4.857  -4.277  0.00  0.00    +0.000 A 
ATOM     20  C   UNL     1     -31.857  -5.800  -3.953  0.00  0.00    +0.000 A 
ATOM     21  C   UNL     1     -32.150  -5.947  -2.491  0.00  0.00    +0.000 C 
ATOM     22  N   UNL     1     -32.850  -5.843  -4.873  0.00  0.00    +0.000 NA
ATOM     23  C   UNL     1     -32.842  -5.210  -6.027  0.00  0.00    +0.000 A 
ATOM     24  N   UNL     1     -32.186  -4.019  -6.083  0.00  0.00    +0.000 N 
ATOM     25  C   UNL     1     -31.050  -3.975  -5.340  0.00  0.00    +0.000 A 
ATOM     26  O   UNL     1     -30.316  -2.972  -5.501  0.00  0.00    +0.000 OA
ATOM     27  C   UNL     1     -32.938  -2.802  -6.399  0.00  0.00    +0.000 C 
ATOM     28  C   UNL     1     -34.183  -2.813  -5.547  0.00  0.00    +0.000 C 
ATOM     29  C   UNL     1     -34.869  -4.152  -5.465  0.00  0.00    +0.000 C 
ATOM     30  C   UNL     1     -34.257  -4.955  -6.772  0.00  0.00    +0.000 C 
BRANCH  19  32
ATOM     31  C   UNL     1     -28.905  -4.964  -3.856  0.00  0.00    +0.000 C 
ATOM     32  C   UNL     1     -29.633  -4.854  -3.508  0.00  0.00    +0.000 C 
ENDBRANCH  19  32
ENDBRANCH  18  30
ENDBRANCH   1  18
TORSDOF 5
ENDMDL
MODEL 10
REMARK VINA RESULT:      -6.7     17.273     20.370
REMARK  Name = 
REMARK  5 active torsions:
REMARK  status: ('A' for Active; 'I' for Inactive)
REMARK    1  A    between atoms: C_2  and  C_3
REMARK    2  A    between atoms: C_14  and  O_15
REMARK    3  A    between atoms: O_15  and  C_16
REMARK    4  A    between atoms: C_22  and  C_23
REMARK    5  A    between atoms: C_24  and  C_25
REMARK                            x       y       z     vdW  Elec       q    Type
REMARK                         _______ _______ _______ _____ _____    ______ ____
ROOT
ATOM      1  C   UNL     1     -17.757  -9.756   8.915  0.00  0.00    +0.000 A 
ATOM      2  C   UNL     1     -17.559 -11.136   8.803  0.00  0.00    +0.000 A 
ATOM      3  C   UNL     1     -16.833 -11.883   9.680  0.00  0.00    +0.000 A 
ATOM      4  O   UNL     1     -16.959 -13.274   9.579  0.00  0.00    +0.000 OA
ATOM      5  C   UNL     1     -16.488 -11.272  10.881  0.00  0.00    +0.000 A 
ATOM      6  C   UNL     1     -16.752  -9.911  11.016  0.00  0.00    +0.000 A 
ATOM      7  C   UNL     1     -17.720  -9.291  10.227  0.00  0.00    +0.000 A 
ENDROOT
BRANCH   7   8
ATOM      8  C   UNL     1     -18.819  -8.511  10.822  0.00  0.00    +0.000 C 
ATOM      9  C   UNL     1     -18.836  -7.203  10.891  0.00  0.00    +0.000 C 
BRANCH   9  10
ATOM     10  C   UNL     1     -19.858  -6.328  10.329  0.00  0.00    +0.000 A 
ATOM     11  C   UNL     1     -19.858  -4.954  10.547  0.00  0.00    +0.000 A 
ATOM     12  C   UNL     1     -20.960  -4.187  10.235  0.00  0.00    +0.000 A 
ATOM     13  O   UNL     1     -21.007  -2.813  10.334  0.00  0.00    +0.000 OA
ATOM     14  C   UNL     1     -22.070  -4.868   9.751  0.00  0.00    +0.000 A 
ATOM     15  C   UNL     1     -21.983  -6.186   9.326  0.00  0.00    +0.000 A 
ATOM     16  O   UNL     1     -23.120  -6.933   9.000  0.00  0.00    +0.000 OA
ATOM     17  C   UNL     1     -20.703  -6.725   9.296  0.00  0.00    +0.000 A 
ENDBRANCH   9  10
ENDBRANCH   7   8
BRANCH   1  18
ATOM     18  O   UNL     1     -18.615  -9.218   8.046  0.00  0.00    +0.000 OA
BRANCH  18  30
ATOM     19  C   UNL     1     -17.076  -7.411   3.972  0.00  0.00    +0.000 A 
ATOM     20  C   UNL     1     -17.213  -6.899   5.258  0.00  0.00    +0.000 A 
ATOM     21  C   UNL     1     -17.577  -5.447   5.339  0.00  0.00    +0.000 C 
ATOM     22  N   UNL     1     -17.754  -7.803   6.109  0.00  0.00    +0.000 NA
ATOM     23  C   UNL     1     -17.971  -9.071   5.830  0.00  0.00    +0.000 A 
ATOM     24  N   UNL     1     -18.273  -9.384   4.540  0.00  0.00    +0.000 N 
ATOM     25  C   UNL     1     -17.600  -8.650   3.618  0.00  0.00    +0.000 A 
ATOM     26  O   UNL     1     -17.702  -9.021   2.425  0.00  0.00    +0.000 OA
ATOM     27  C   UNL     1     -19.575  -9.984   4.235  0.00  0.00    +0.000 C 
ATOM     28  C   UNL     1     -20.620  -9.176   4.964  0.00  0.00    +0.000 C 
ATOM     29  C   UNL     1     -20.246  -8.804   6.376  0.00  0.00    +0.000 C 
ATOM     30  C   UNL     1     -19.046  -9.882   6.730  0.00  0.00    +0.000 C 
BRANCH  19  32
ATOM     31  C   UNL     1     -15.480  -6.645   2.981  0.00  0.00    +0.000 C 
ATOM     32  C   UNL     1     -16.294  -6.638   2.994  0.00  0.00    +0.000 C 
ENDBRANCH  19  32
ENDBRANCH  18  30
ENDBRANCH   1  18
TORSDOF 5
ENDMDL
