MODEL 1
REMARK VINA RESULT:      -8.2      0.000      0.000
REMARK  Name = 
REMARK  5 active torsions:
REMARK  status: ('A' for Active; 'I' for Inactive)
REMARK    1  A    between atoms: C_2  and  C_3
REMARK    2  A    between atoms: C_14  and  O_15
REMARK    3  A    between atoms: O_15  and  C_16
REMARK    4  A    between atoms: C_22  and  C_23
REMARK    5  A    between atoms: C_24  and  C_25
REMARK                            x       y       z     vdW  Elec       q    Type
REMARK                         _______ _______ _______ _____ _____    ______ ____
ROOT
ATOM      1  C   UNL     1     -14.182  18.070   1.012  0.00  0.00    +0.000 A 
ATOM      2  C   UNL     1     -15.221  18.662   0.300  0.00  0.00    +0.000 A 
ATOM      3  C   UNL     1     -16.380  17.970  -0.023  0.00  0.00    +0.000 A 
ATOM      4  O   UNL     1     -17.586  18.631  -0.097  0.00  0.00    +0.000 OA
ATOM      5  C   UNL     1     -16.234  16.608  -0.237  0.00  0.00    +0.000 A 
ATOM      6  C   UNL     1     -14.976  16.066   0.009  0.00  0.00    +0.000 A 
ATOM      7  C   UNL     1     -14.068  16.690   0.861  0.00  0.00    +0.000 A 
ENDROOT
BRANCH   7   8
ATOM      8  C   UNL     1     -13.498  16.000   2.027  0.00  0.00    +0.000 C 
ATOM      9  C   UNL     1     -12.884  14.860   2.013  0.00  0.00    +0.000 C 
BRANCH   9  10
ATOM     10  C   UNL     1     -13.286  13.654   2.754  0.00  0.00    +0.000 A 
ATOM     11  C   UNL     1     -12.231  12.807   3.076  0.00  0.00    +0.000 A 
ATOM     12  C   UNL     1     -12.322  11.427   2.970  0.00  0.00    +0.000 A 
ATOM     13  O   UNL     1     -11.229  10.681   3.420  0.00  0.00    +0.000 OA
ATOM     14  C   UNL     1     -13.537  10.843   2.777  0.00  0.00    +0.000 A 
ATOM     15  C   UNL     1     -14.590  11.637   2.423  0.00  0.00    +0.000 A 
ATOM     16  O   UNL     1     -15.879  11.105   2.541  0.00  0.00    +0.000 OA
ATOM     17  C   UNL     1     -14.498  13.018   2.527  0.00  0.00    +0.000 A 
ENDBRANCH   9  10
ENDBRANCH   7   8
BRANCH   1  18
ATOM     18  O   UNL     1     -13.034  18.761   1.363  0.00  0.00    +0.000 OA
BRANCH  18  30
ATOM     19  C   UNL     1      -9.129  19.985   3.915  0.00  0.00    +0.000 A 
ATOM     20  C   UNL     1     -10.176  20.389   4.739  0.00  0.00    +0.000 A 
ATOM     21  C   UNL     1      -9.991  21.639   5.549  0.00  0.00    +0.000 C 
ATOM     22  N   UNL     1     -11.403  19.976   4.338  0.00  0.00    +0.000 NA
ATOM     23  C   UNL     1     -11.636  19.378   3.140  0.00  0.00    +0.000 A 
ATOM     24  N   UNL     1     -10.722  19.538   2.207  0.00  0.00    +0.000 N 
ATOM     25  C   UNL     1      -9.436  19.519   2.641  0.00  0.00    +0.000 A 
ATOM     26  O   UNL     1      -8.523  19.231   1.811  0.00  0.00    +0.000 OA
ATOM     27  C   UNL     1     -10.887  19.860   0.821  0.00  0.00    +0.000 C 
ATOM     28  C   UNL     1     -12.022  20.824   0.727  0.00  0.00    +0.000 C 
ATOM     29  C   UNL     1     -12.796  21.077   1.918  0.00  0.00    +0.000 C 
ATOM     30  C   UNL     1     -13.191  19.630   2.659  0.00  0.00    +0.000 C 
BRANCH  19  32
ATOM     31  C   UNL     1      -7.234  19.331   5.097  0.00  0.00    +0.000 C 
ATOM     32  C   UNL     1      -7.726  20.253   4.317  0.00  0.00    +0.000 C 
ENDBRANCH  19  32
ENDBRANCH  18  30
ENDBRANCH   1  18
TORSDOF 5
ENDMDL
MODEL 2
REMARK VINA RESULT:      -7.9     19.065     24.494
REMARK  Name = 
REMARK  5 active torsions:
REMARK  status: ('A' for Active; 'I' for Inactive)
REMARK    1  A    between atoms: C_2  and  C_3
REMARK    2  A    between atoms: C_14  and  O_15
REMARK    3  A    between atoms: O_15  and  C_16
REMARK    4  A    between atoms: C_22  and  C_23
REMARK    5  A    between atoms: C_24  and  C_25
REMARK                            x       y       z     vdW  Elec       q    Type
REMARK                         _______ _______ _______ _____ _____    ______ ____
ROOT
ATOM      1  C   UNL     1     -19.234  -6.382   8.621  0.00  0.00    +0.000 A 
ATOM      2  C   UNL     1     -19.446  -6.852   9.914  0.00  0.00    +0.000 A 
ATOM      3  C   UNL     1     -19.205  -8.173  10.265  0.00  0.00    +0.000 A 
ATOM      4  O   UNL     1     -18.775  -8.486  11.535  0.00  0.00    +0.000 OA
ATOM      5  C   UNL     1     -19.405  -9.113   9.267  0.00  0.00    +0.000 A 
ATOM      6  C   UNL     1     -19.709  -8.627   7.999  0.00  0.00    +0.000 A 
ATOM      7  C   UNL     1     -19.362  -7.334   7.612  0.00  0.00    +0.000 A 
ENDROOT
BRANCH   7   8
ATOM      8  C   UNL     1     -18.532  -7.074   6.428  0.00  0.00    +0.000 C 
ATOM      9  C   UNL     1     -18.495  -7.794   5.351  0.00  0.00    +0.000 C 
BRANCH   9  10
ATOM     10  C   UNL     1     -17.305  -8.461   4.801  0.00  0.00    +0.000 A 
ATOM     11  C   UNL     1     -17.418  -8.809   3.458  0.00  0.00    +0.000 A 
ATOM     12  C   UNL     1     -16.967 -10.021   2.960  0.00  0.00    +0.000 A 
ATOM     13  O   UNL     1     -17.045 -10.209   1.577  0.00  0.00    +0.000 OA
ATOM     14  C   UNL     1     -16.172 -10.814   3.732  0.00  0.00    +0.000 A 
ATOM     15  C   UNL     1     -16.065 -10.529   5.062  0.00  0.00    +0.000 A 
ATOM     16  O   UNL     1     -15.020 -11.124   5.778  0.00  0.00    +0.000 OA
ATOM     17  C   UNL     1     -16.520  -9.315   5.561  0.00  0.00    +0.000 A 
ENDBRANCH   9  10
ENDBRANCH   7   8
BRANCH   1  18
ATOM     18  O   UNL     1     -19.445  -5.059   8.268  0.00  0.00    +0.000 OA
BRANCH  18  30
ATOM     19  C   UNL     1     -19.421  -0.601   6.429  0.00  0.00    +0.000 A 
ATOM     20  C   UNL     1     -18.102  -0.772   6.840  0.00  0.00    +0.000 A 
ATOM     21  C   UNL     1     -17.377   0.420   7.393  0.00  0.00    +0.000 C 
ATOM     22  N   UNL     1     -17.788  -2.035   7.222  0.00  0.00    +0.000 NA
ATOM     23  C   UNL     1     -18.711  -3.021   7.374  0.00  0.00    +0.000 A 
ATOM     24  N   UNL     1     -19.965  -2.647   7.512  0.00  0.00    +0.000 N 
ATOM     25  C   UNL     1     -20.345  -1.589   6.751  0.00  0.00    +0.000 A 
ATOM     26  O   UNL     1     -21.577  -1.444   6.491  0.00  0.00    +0.000 OA
ATOM     27  C   UNL     1     -20.952  -3.107   8.442  0.00  0.00    +0.000 C 
ATOM     28  C   UNL     1     -20.251  -3.361   9.735  0.00  0.00    +0.000 C 
ATOM     29  C   UNL     1     -18.810  -3.290   9.750  0.00  0.00    +0.000 C 
ATOM     30  C   UNL     1     -18.184  -4.146   8.456  0.00  0.00    +0.000 C 
BRANCH  19  32
ATOM     31  C   UNL     1     -19.639   0.789   4.575  0.00  0.00    +0.000 C 
ATOM     32  C   UNL     1     -19.853   0.698   5.858  0.00  0.00    +0.000 C 
ENDBRANCH  19  32
ENDBRANCH  18  30
ENDBRANCH   1  18
TORSDOF 5
ENDMDL
MODEL 3
REMARK VINA RESULT:      -7.8     29.652     34.423
REMARK  Name = 
REMARK  5 active torsions:
REMARK  status: ('A' for Active; 'I' for Inactive)
REMARK    1  A    between atoms: C_2  and  C_3
REMARK    2  A    between atoms: C_14  and  O_15
REMARK    3  A    between atoms: O_15  and  C_16
REMARK    4  A    between atoms: C_22  and  C_23
REMARK    5  A    between atoms: C_24  and  C_25
REMARK                            x       y       z     vdW  Elec       q    Type
REMARK                         _______ _______ _______ _____ _____    ______ ____
ROOT
ATOM      1  C   UNL     1     -35.511  -8.425  -5.258  0.00  0.00    +0.000 A 
ATOM      2  C   UNL     1     -35.822  -9.366  -4.281  0.00  0.00    +0.000 A 
ATOM      3  C   UNL     1     -36.444 -10.568  -4.588  0.00  0.00    +0.000 A 
ATOM      4  O   UNL     1     -36.170 -11.699  -3.853  0.00  0.00    +0.000 OA
ATOM      5  C   UNL     1     -37.315 -10.543  -5.666  0.00  0.00    +0.000 A 
ATOM      6  C   UNL     1     -37.382  -9.357  -6.391  0.00  0.00    +0.000 A 
ATOM      7  C   UNL     1     -36.336  -8.436  -6.380  0.00  0.00    +0.000 A 
ENDROOT
BRANCH   7   8
ATOM      8  C   UNL     1     -35.678  -7.995  -7.618  0.00  0.00    +0.000 C 
ATOM      9  C   UNL     1     -36.141  -8.138  -8.820  0.00  0.00    +0.000 C 
BRANCH   9  10
ATOM     10  C   UNL     1     -35.485  -8.867  -9.916  0.00  0.00    +0.000 A 
ATOM     11  C   UNL     1     -35.301  -8.113 -11.070  0.00  0.00    +0.000 A 
ATOM     12  C   UNL     1     -35.521  -8.625 -12.340  0.00  0.00    +0.000 A 
ATOM     13  O   UNL     1     -35.202  -7.800 -13.422  0.00  0.00    +0.000 OA
ATOM     14  C   UNL     1     -35.691  -9.966 -12.507  0.00  0.00    +0.000 A 
ATOM     15  C   UNL     1     -35.913 -10.736 -11.402  0.00  0.00    +0.000 A 
ATOM     16  O   UNL     1     -35.765 -12.121 -11.528  0.00  0.00    +0.000 OA
ATOM     17  C   UNL     1     -35.694 -10.222 -10.131  0.00  0.00    +0.000 A 
ENDBRANCH   9  10
ENDBRANCH   7   8
BRANCH   1  18
ATOM     18  O   UNL     1     -34.865  -7.235  -4.965  0.00  0.00    +0.000 OA
BRANCH  18  30
ATOM     19  C   UNL     1     -30.795  -4.707  -5.520  0.00  0.00    +0.000 A 
ATOM     20  C   UNL     1     -30.478  -5.580  -4.483  0.00  0.00    +0.000 A 
ATOM     21  C   UNL     1     -29.580  -5.077  -3.390  0.00  0.00    +0.000 C 
ATOM     22  N   UNL     1     -31.399  -6.549  -4.257  0.00  0.00    +0.000 NA
ATOM     23  C   UNL     1     -32.620  -6.574  -4.855  0.00  0.00    +0.000 A 
ATOM     24  N   UNL     1     -33.052  -5.444  -5.373  0.00  0.00    +0.000 N 
ATOM     25  C   UNL     1     -32.107  -4.683  -5.982  0.00  0.00    +0.000 A 
ATOM     26  O   UNL     1     -32.480  -3.842  -6.854  0.00  0.00    +0.000 OA
ATOM     27  C   UNL     1     -34.346  -4.838  -5.276  0.00  0.00    +0.000 C 
ATOM     28  C   UNL     1     -34.851  -5.103  -3.897  0.00  0.00    +0.000 C 
ATOM     29  C   UNL     1     -34.097  -6.005  -3.061  0.00  0.00    +0.000 C 
ATOM     30  C   UNL     1     -33.705  -7.386  -3.920  0.00  0.00    +0.000 C 
BRANCH  19  32
ATOM     31  C   UNL     1     -29.053  -4.098  -6.937  0.00  0.00    +0.000 C 
ATOM     32  C   UNL     1     -29.809  -3.689  -5.957  0.00  0.00    +0.000 C 
ENDBRANCH  19  32
ENDBRANCH  18  30
ENDBRANCH   1  18
TORSDOF 5
ENDMDL
MODEL 4
REMARK VINA RESULT:      -7.8     29.838     33.147
REMARK  Name = 
REMARK  5 active torsions:
REMARK  status: ('A' for Active; 'I' for Inactive)
REMARK    1  A    between atoms: C_2  and  C_3
REMARK    2  A    between atoms: C_14  and  O_15
REMARK    3  A    between atoms: O_15  and  C_16
REMARK    4  A    between atoms: C_22  and  C_23
REMARK    5  A    between atoms: C_24  and  C_25
REMARK                            x       y       z     vdW  Elec       q    Type
REMARK                         _______ _______ _______ _____ _____    ______ ____
ROOT
ATOM      1  C   UNL     1     -36.083  -3.272  -6.671  0.00  0.00    +0.000 A 
ATOM      2  C   UNL     1     -36.622  -2.023  -6.374  0.00  0.00    +0.000 A 
ATOM      3  C   UNL     1     -37.908  -1.668  -6.755  0.00  0.00    +0.000 A 
ATOM      4  O   UNL     1     -38.654  -0.816  -5.971  0.00  0.00    +0.000 OA
ATOM      5  C   UNL     1     -38.371  -2.233  -7.933  0.00  0.00    +0.000 A 
ATOM      6  C   UNL     1     -37.551  -3.180  -8.539  0.00  0.00    +0.000 A 
ATOM      7  C   UNL     1     -36.592  -3.884  -7.814  0.00  0.00    +0.000 A 
ENDROOT
BRANCH   7   8
ATOM      8  C   UNL     1     -36.576  -5.353  -7.770  0.00  0.00    +0.000 C 
ATOM      9  C   UNL     1     -35.822  -6.128  -8.483  0.00  0.00    +0.000 C 
BRANCH   9  10
ATOM     10  C   UNL     1     -36.289  -7.160  -9.422  0.00  0.00    +0.000 A 
ATOM     11  C   UNL     1     -35.317  -7.594 -10.319  0.00  0.00    +0.000 A 
ATOM     12  C   UNL     1     -35.586  -7.822 -11.659  0.00  0.00    +0.000 A 
ATOM     13  O   UNL     1     -34.551  -8.354 -12.434  0.00  0.00    +0.000 OA
ATOM     14  C   UNL     1     -36.877  -7.862 -12.092  0.00  0.00    +0.000 A 
ATOM     15  C   UNL     1     -37.857  -7.409 -11.256  0.00  0.00    +0.000 A 
ATOM     16  O   UNL     1     -39.181  -7.743 -11.557  0.00  0.00    +0.000 OA
ATOM     17  C   UNL     1     -37.586  -7.178  -9.914  0.00  0.00    +0.000 A 
ENDBRANCH   9  10
ENDBRANCH   7   8
BRANCH   1  18
ATOM     18  O   UNL     1     -34.811  -3.647  -6.270  0.00  0.00    +0.000 OA
BRANCH  18  30
ATOM     19  C   UNL     1     -32.169  -6.210  -3.154  0.00  0.00    +0.000 A 
ATOM     20  C   UNL     1     -32.492  -5.071  -2.422  0.00  0.00    +0.000 A 
ATOM     21  C   UNL     1     -31.467  -4.536  -1.465  0.00  0.00    +0.000 C 
ATOM     22  N   UNL     1     -33.408  -4.262  -3.009  0.00  0.00    +0.000 NA
ATOM     23  C   UNL     1     -33.848  -4.431  -4.284  0.00  0.00    +0.000 A 
ATOM     24  N   UNL     1     -33.099  -5.166  -5.079  0.00  0.00    +0.000 N 
ATOM     25  C   UNL     1     -32.523  -6.249  -4.499  0.00  0.00    +0.000 A 
ATOM     26  O   UNL     1     -32.169  -7.215  -5.241  0.00  0.00    +0.000 OA
ATOM     27  C   UNL     1     -32.698  -4.919  -6.431  0.00  0.00    +0.000 C 
ATOM     28  C   UNL     1     -32.451  -3.453  -6.555  0.00  0.00    +0.000 C 
ATOM     29  C   UNL     1     -32.819  -2.608  -5.444  0.00  0.00    +0.000 C 
ATOM     30  C   UNL     1     -34.358  -2.998  -4.916  0.00  0.00    +0.000 C 
BRANCH  19  32
ATOM     31  C   UNL     1     -30.046  -7.143  -2.957  0.00  0.00    +0.000 C 
ATOM     32  C   UNL     1     -31.285  -7.243  -2.562  0.00  0.00    +0.000 C 
ENDBRANCH  19  32
ENDBRANCH  18  30
ENDBRANCH   1  18
TORSDOF 5
ENDMDL
MODEL 5
REMARK VINA RESULT:      -7.8     29.230     32.087
REMARK  Name = 
REMARK  5 active torsions:
REMARK  status: ('A' for Active; 'I' for Inactive)
REMARK    1  A    between atoms: C_2  and  C_3
REMARK    2  A    between atoms: C_14  and  O_15
REMARK    3  A    between atoms: O_15  and  C_16
REMARK    4  A    between atoms: C_22  and  C_23
REMARK    5  A    between atoms: C_24  and  C_25
REMARK                            x       y       z     vdW  Elec       q    Type
REMARK                         _______ _______ _______ _____ _____    ______ ____
ROOT
ATOM      1  C   UNL     1     -36.443  -1.762  -5.020  0.00  0.00    +0.000 A 
ATOM      2  C   UNL     1     -36.503  -0.968  -6.162  0.00  0.00    +0.000 A 
ATOM      3  C   UNL     1     -37.589  -0.147  -6.431  0.00  0.00    +0.000 A 
ATOM      4  O   UNL     1     -37.410   1.044  -7.100  0.00  0.00    +0.000 OA
ATOM      5  C   UNL     1     -38.817  -0.594  -5.972  0.00  0.00    +0.000 A 
ATOM      6  C   UNL     1     -38.814  -1.749  -5.195  0.00  0.00    +0.000 A 
ATOM      7  C   UNL     1     -37.675  -2.160  -4.506  0.00  0.00    +0.000 A 
ENDROOT
BRANCH   7   8
ATOM      8  C   UNL     1     -37.682  -2.374  -3.052  0.00  0.00    +0.000 C 
ATOM      9  C   UNL     1     -38.431  -3.213  -2.409  0.00  0.00    +0.000 C 
BRANCH   9  10
ATOM     10  C   UNL     1     -39.399  -2.872  -1.355  0.00  0.00    +0.000 A 
ATOM     11  C   UNL     1     -39.406  -3.758  -0.283  0.00  0.00    +0.000 A 
ATOM     12  C   UNL     1     -40.577  -4.192   0.320  0.00  0.00    +0.000 A 
ATOM     13  O   UNL     1     -40.448  -5.001   1.453  0.00  0.00    +0.000 OA
ATOM     14  C   UNL     1     -41.755  -3.570   0.033  0.00  0.00    +0.000 A 
ATOM     15  C   UNL     1     -41.798  -2.722  -1.035  0.00  0.00    +0.000 A 
ATOM     16  O   UNL     1     -42.888  -1.850  -1.135  0.00  0.00    +0.000 OA
ATOM     17  C   UNL     1     -40.625  -2.290  -1.640  0.00  0.00    +0.000 A 
ENDBRANCH   9  10
ENDBRANCH   7   8
BRANCH   1  18
ATOM     18  O   UNL     1     -35.351  -2.563  -4.728  0.00  0.00    +0.000 OA
BRANCH  18  30
ATOM     19  C   UNL     1     -30.955  -4.355  -3.879  0.00  0.00    +0.000 A 
ATOM     20  C   UNL     1     -30.842  -3.862  -5.176  0.00  0.00    +0.000 A 
ATOM     21  C   UNL     1     -29.982  -4.619  -6.144  0.00  0.00    +0.000 C 
ATOM     22  N   UNL     1     -31.897  -3.119  -5.592  0.00  0.00    +0.000 NA
ATOM     23  C   UNL     1     -33.056  -3.007  -4.891  0.00  0.00    +0.000 A 
ATOM     24  N   UNL     1     -33.292  -3.928  -3.981  0.00  0.00    +0.000 N 
ATOM     25  C   UNL     1     -32.209  -4.344  -3.277  0.00  0.00    +0.000 A 
ATOM     26  O   UNL     1     -32.394  -4.869  -2.139  0.00  0.00    +0.000 OA
ATOM     27  C   UNL     1     -34.500  -4.650  -3.714  0.00  0.00    +0.000 C 
ATOM     28  C   UNL     1     -35.150  -4.920  -5.030  0.00  0.00    +0.000 C 
ATOM     29  C   UNL     1     -34.593  -4.290  -6.202  0.00  0.00    +0.000 C 
ATOM     30  C   UNL     1     -34.313  -2.668  -5.900  0.00  0.00    +0.000 C 
BRANCH  19  32
ATOM     31  C   UNL     1     -29.932  -6.364  -3.300  0.00  0.00    +0.000 C 
ATOM     32  C   UNL     1     -29.811  -5.066  -3.257  0.00  0.00    +0.000 C 
ENDBRANCH  19  32
ENDBRANCH  18  30
ENDBRANCH   1  18
TORSDOF 5
ENDMDL
MODEL 6
REMARK VINA RESULT:      -7.6     30.146     34.373
REMARK  Name = 
REMARK  5 active torsions:
REMARK  status: ('A' for Active; 'I' for Inactive)
REMARK    1  A    between atoms: C_2  and  C_3
REMARK    2  A    between atoms: C_14  and  O_15
REMARK    3  A    between atoms: O_15  and  C_16
REMARK    4  A    between atoms: C_22  and  C_23
REMARK    5  A    between atoms: C_24  and  C_25
REMARK                            x       y       z     vdW  Elec       q    Type
REMARK                         _______ _______ _______ _____ _____    ______ ____
ROOT
ATOM      1  C   UNL     1     -36.082  -4.808  -6.014  0.00  0.00    +0.000 A 
ATOM      2  C   UNL     1     -36.624  -3.574  -6.360  0.00  0.00    +0.000 A 
ATOM      3  C   UNL     1     -36.335  -2.418  -5.649  0.00  0.00    +0.000 A 
ATOM      4  O   UNL     1     -36.286  -1.201  -6.292  0.00  0.00    +0.000 OA
ATOM      5  C   UNL     1     -36.089  -2.582  -4.295  0.00  0.00    +0.000 A 
ATOM      6  C   UNL     1     -36.042  -3.890  -3.821  0.00  0.00    +0.000 A 
ATOM      7  C   UNL     1     -35.763  -4.962  -4.667  0.00  0.00    +0.000 A 
ENDROOT
BRANCH   7   8
ATOM      8  C   UNL     1     -34.646  -5.882  -4.412  0.00  0.00    +0.000 C 
ATOM      9  C   UNL     1     -34.091  -6.107  -3.263  0.00  0.00    +0.000 C 
BRANCH   9  10
ATOM     10  C   UNL     1     -32.675  -5.889  -2.931  0.00  0.00    +0.000 A 
ATOM     11  C   UNL     1     -32.051  -4.921  -3.712  0.00  0.00    +0.000 A 
ATOM     12  C   UNL     1     -30.767  -5.076  -4.209  0.00  0.00    +0.000 A 
ATOM     13  O   UNL     1     -30.213  -3.990  -4.893  0.00  0.00    +0.000 OA
ATOM     14  C   UNL     1     -29.979  -6.085  -3.742  0.00  0.00    +0.000 A 
ATOM     15  C   UNL     1     -30.561  -7.075  -3.004  0.00  0.00    +0.000 A 
ATOM     16  O   UNL     1     -29.724  -7.917  -2.264  0.00  0.00    +0.000 OA
ATOM     17  C   UNL     1     -31.848  -6.919  -2.508  0.00  0.00    +0.000 A 
ENDBRANCH   9  10
ENDBRANCH   7   8
BRANCH   1  18
ATOM     18  O   UNL     1     -36.341  -5.962  -6.735  0.00  0.00    +0.000 OA
BRANCH  18  30
ATOM     19  C   UNL     1     -36.791  -7.665 -11.224  0.00  0.00    +0.000 A 
ATOM     20  C   UNL     1     -38.039  -7.099 -10.982  0.00  0.00    +0.000 A 
ATOM     21  C   UNL     1     -39.245  -7.776 -11.566  0.00  0.00    +0.000 C 
ATOM     22  N   UNL     1     -38.117  -6.366  -9.844  0.00  0.00    +0.000 NA
ATOM     23  C   UNL     1     -37.130  -6.328  -8.911  0.00  0.00    +0.000 A 
ATOM     24  N   UNL     1     -36.247  -7.304  -8.938  0.00  0.00    +0.000 N 
ATOM     25  C   UNL     1     -35.881  -7.724 -10.174  0.00  0.00    +0.000 A 
ATOM     26  O   UNL     1     -34.767  -8.316 -10.305  0.00  0.00    +0.000 OA
ATOM     27  C   UNL     1     -35.715  -8.075  -7.855  0.00  0.00    +0.000 C 
ATOM     28  C   UNL     1     -36.827  -8.293  -6.883  0.00  0.00    +0.000 C 
ATOM     29  C   UNL     1     -38.065  -7.583  -7.100  0.00  0.00    +0.000 C 
ATOM     30  C   UNL     1     -37.749  -5.973  -7.426  0.00  0.00    +0.000 C 
BRANCH  19  32
ATOM     31  C   UNL     1     -35.978  -7.615 -13.404  0.00  0.00    +0.000 C 
ATOM     32  C   UNL     1     -36.537  -8.374 -12.502  0.00  0.00    +0.000 C 
ENDBRANCH  19  32
ENDBRANCH  18  30
ENDBRANCH   1  18
TORSDOF 5
ENDMDL
MODEL 7
REMARK VINA RESULT:      -7.6     28.512     32.667
REMARK  Name = 
REMARK  5 active torsions:
REMARK  status: ('A' for Active; 'I' for Inactive)
REMARK    1  A    between atoms: C_2  and  C_3
REMARK    2  A    between atoms: C_14  and  O_15
REMARK    3  A    between atoms: O_15  and  C_16
REMARK    4  A    between atoms: C_22  and  C_23
REMARK    5  A    between atoms: C_24  and  C_25
REMARK                            x       y       z     vdW  Elec       q    Type
REMARK                         _______ _______ _______ _____ _____    ______ ____
ROOT
ATOM      1  C   UNL     1     -36.028  -5.773  -7.380  0.00  0.00    +0.000 A 
ATOM      2  C   UNL     1     -35.432  -6.753  -8.169  0.00  0.00    +0.000 A 
ATOM      3  C   UNL     1     -36.017  -7.209  -9.342  0.00  0.00    +0.000 A 
ATOM      4  O   UNL     1     -35.232  -7.614 -10.398  0.00  0.00    +0.000 OA
ATOM      5  C   UNL     1     -37.403  -7.205  -9.371  0.00  0.00    +0.000 A 
ATOM      6  C   UNL     1     -38.052  -6.639  -8.278  0.00  0.00    +0.000 A 
ATOM      7  C   UNL     1     -37.418  -5.712  -7.454  0.00  0.00    +0.000 A 
ENDROOT
BRANCH   7   8
ATOM      8  C   UNL     1     -37.976  -4.373  -7.220  0.00  0.00    +0.000 C 
ATOM      9  C   UNL     1     -37.982  -3.391  -8.064  0.00  0.00    +0.000 C 
BRANCH   9  10
ATOM     10  C   UNL     1     -37.362  -2.073  -7.859  0.00  0.00    +0.000 A 
ATOM     11  C   UNL     1     -36.912  -1.853  -6.562  0.00  0.00    +0.000 A 
ATOM     12  C   UNL     1     -37.086  -0.644  -5.906  0.00  0.00    +0.000 A 
ATOM     13  O   UNL     1     -36.498  -0.514  -4.644  0.00  0.00    +0.000 OA
ATOM     14  C   UNL     1     -37.491   0.452  -6.606  0.00  0.00    +0.000 A 
ATOM     15  C   UNL     1     -37.975   0.274  -7.869  0.00  0.00    +0.000 A 
ATOM     16  O   UNL     1     -38.083   1.398  -8.694  0.00  0.00    +0.000 OA
ATOM     17  C   UNL     1     -37.803  -0.938  -8.525  0.00  0.00    +0.000 A 
ENDBRANCH   9  10
ENDBRANCH   7   8
BRANCH   1  18
ATOM     18  O   UNL     1     -35.438  -5.291  -6.223  0.00  0.00    +0.000 OA
BRANCH  18  30
ATOM     19  C   UNL     1     -30.859  -4.681  -4.839  0.00  0.00    +0.000 A 
ATOM     20  C   UNL     1     -31.115  -6.002  -4.485  0.00  0.00    +0.000 A 
ATOM     21  C   UNL     1     -30.481  -6.530  -3.231  0.00  0.00    +0.000 C 
ATOM     22  N   UNL     1     -32.290  -6.495  -4.949  0.00  0.00    +0.000 NA
ATOM     23  C   UNL     1     -33.236  -5.728  -5.552  0.00  0.00    +0.000 A 
ATOM     24  N   UNL     1     -33.168  -4.429  -5.348  0.00  0.00    +0.000 N 
ATOM     25  C   UNL     1     -31.915  -3.910  -5.312  0.00  0.00    +0.000 A 
ATOM     26  O   UNL     1     -31.767  -2.675  -5.557  0.00  0.00    +0.000 OA
ATOM     27  C   UNL     1     -34.215  -3.506  -5.029  0.00  0.00    +0.000 C 
ATOM     28  C   UNL     1     -35.160  -4.212  -4.114  0.00  0.00    +0.000 C 
ATOM     29  C   UNL     1     -34.965  -5.626  -3.900  0.00  0.00    +0.000 C 
ATOM     30  C   UNL     1     -34.729  -6.397  -5.366  0.00  0.00    +0.000 C 
BRANCH  19  32
ATOM     31  C   UNL     1     -28.726  -4.050  -5.523  0.00  0.00    +0.000 C 
ATOM     32  C   UNL     1     -29.548  -4.069  -4.511  0.00  0.00    +0.000 C 
ENDBRANCH  19  32
ENDBRANCH  18  30
ENDBRANCH   1  18
TORSDOF 5
ENDMDL
MODEL 8
REMARK VINA RESULT:      -7.6     29.740     32.701
REMARK  Name = 
REMARK  5 active torsions:
REMARK  status: ('A' for Active; 'I' for Inactive)
REMARK    1  A    between atoms: C_2  and  C_3
REMARK    2  A    between atoms: C_14  and  O_15
REMARK    3  A    between atoms: O_15  and  C_16
REMARK    4  A    between atoms: C_22  and  C_23
REMARK    5  A    between atoms: C_24  and  C_25
REMARK                            x       y       z     vdW  Elec       q    Type
REMARK                         _______ _______ _______ _____ _____    ______ ____
ROOT
ATOM      1  C   UNL     1     -35.817  -3.442  -6.708  0.00  0.00    +0.000 A 
ATOM      2  C   UNL     1     -36.557  -2.307  -6.390  0.00  0.00    +0.000 A 
ATOM      3  C   UNL     1     -37.920  -2.223  -6.642  0.00  0.00    +0.000 A 
ATOM      4  O   UNL     1     -38.736  -1.494  -5.806  0.00  0.00    +0.000 OA
ATOM      5  C   UNL     1     -38.378  -2.921  -7.748  0.00  0.00    +0.000 A 
ATOM      6  C   UNL     1     -37.452  -3.720  -8.412  0.00  0.00    +0.000 A 
ATOM      7  C   UNL     1     -36.307  -4.193  -7.775  0.00  0.00    +0.000 A 
ENDROOT
BRANCH   7   8
ATOM      8  C   UNL     1     -36.001  -5.628  -7.694  0.00  0.00    +0.000 C 
ATOM      9  C   UNL     1     -36.863  -6.584  -7.544  0.00  0.00    +0.000 C 
BRANCH   9  10
ATOM     10  C   UNL     1     -36.895  -7.550  -6.435  0.00  0.00    +0.000 A 
ATOM     11  C   UNL     1     -36.582  -7.002  -5.195  0.00  0.00    +0.000 A 
ATOM     12  C   UNL     1     -35.773  -7.650  -4.275  0.00  0.00    +0.000 A 
ATOM     13  O   UNL     1     -35.617  -7.043  -3.025  0.00  0.00    +0.000 OA
ATOM     14  C   UNL     1     -35.454  -8.961  -4.461  0.00  0.00    +0.000 A 
ATOM     15  C   UNL     1     -35.709  -9.526  -5.677  0.00  0.00    +0.000 A 
ATOM     16  O   UNL     1     -35.688 -10.921  -5.769  0.00  0.00    +0.000 OA
ATOM     17  C   UNL     1     -36.518  -8.875  -6.599  0.00  0.00    +0.000 A 
ENDBRANCH   9  10
ENDBRANCH   7   8
BRANCH   1  18
ATOM     18  O   UNL     1     -34.463  -3.547  -6.435  0.00  0.00    +0.000 OA
BRANCH  18  30
ATOM     19  C   UNL     1     -32.195  -6.203  -3.109  0.00  0.00    +0.000 A 
ATOM     20  C   UNL     1     -32.475  -5.023  -2.425  0.00  0.00    +0.000 A 
ATOM     21  C   UNL     1     -31.468  -4.535  -1.423  0.00  0.00    +0.000 C 
ATOM     22  N   UNL     1     -33.294  -4.168  -3.083  0.00  0.00    +0.000 NA
ATOM     23  C   UNL     1     -33.673  -4.342  -4.377  0.00  0.00    +0.000 A 
ATOM     24  N   UNL     1     -32.937  -5.151  -5.109  0.00  0.00    +0.000 N 
ATOM     25  C   UNL     1     -32.475  -6.256  -4.470  0.00  0.00    +0.000 A 
ATOM     26  O   UNL     1     -32.152  -7.265  -5.167  0.00  0.00    +0.000 OA
ATOM     27  C   UNL     1     -32.444  -4.973  -6.441  0.00  0.00    +0.000 C 
ATOM     28  C   UNL     1     -32.083  -3.532  -6.586  0.00  0.00    +0.000 C 
ATOM     29  C   UNL     1     -32.450  -2.631  -5.520  0.00  0.00    +0.000 C 
ATOM     30  C   UNL     1     -34.041  -2.895  -5.073  0.00  0.00    +0.000 C 
BRANCH  19  32
ATOM     31  C   UNL     1     -30.148  -7.235  -2.707  0.00  0.00    +0.000 C 
ATOM     32  C   UNL     1     -31.424  -7.279  -2.441  0.00  0.00    +0.000 C 
ENDBRANCH  19  32
ENDBRANCH  18  30
ENDBRANCH   1  18
TORSDOF 5
ENDMDL
MODEL 9
REMARK VINA RESULT:      -7.5     17.503     21.230
REMARK  Name = 
REMARK  5 active torsions:
REMARK  status: ('A' for Active; 'I' for Inactive)
REMARK    1  A    between atoms: C_2  and  C_3
REMARK    2  A    between atoms: C_14  and  O_15
REMARK    3  A    between atoms: O_15  and  C_16
REMARK    4  A    between atoms: C_22  and  C_23
REMARK    5  A    between atoms: C_24  and  C_25
REMARK                            x       y       z     vdW  Elec       q    Type
REMARK                         _______ _______ _______ _____ _____    ______ ____
ROOT
ATOM      1  C   UNL     1     -29.435   7.447 -10.806  0.00  0.00    +0.000 A 
ATOM      2  C   UNL     1     -30.460   6.505 -10.781  0.00  0.00    +0.000 A 
ATOM      3  C   UNL     1     -30.218   5.161 -10.533  0.00  0.00    +0.000 A 
ATOM      4  O   UNL     1     -31.155   4.396  -9.876  0.00  0.00    +0.000 OA
ATOM      5  C   UNL     1     -28.994   4.674 -10.966  0.00  0.00    +0.000 A 
ATOM      6  C   UNL     1     -28.101   5.602 -11.491  0.00  0.00    +0.000 A 
ATOM      7  C   UNL     1     -28.184   6.956 -11.172  0.00  0.00    +0.000 A 
ENDROOT
BRANCH   7   8
ATOM      8  C   UNL     1     -27.053   7.684 -10.580  0.00  0.00    +0.000 C 
ATOM      9  C   UNL     1     -26.439   7.377  -9.482  0.00  0.00    +0.000 C 
BRANCH   9  10
ATOM     10  C   UNL     1     -26.317   8.234  -8.293  0.00  0.00    +0.000 A 
ATOM     11  C   UNL     1     -25.005   8.469  -7.894  0.00  0.00    +0.000 A 
ATOM     12  C   UNL     1     -24.615   8.458  -6.564  0.00  0.00    +0.000 A 
ATOM     13  O   UNL     1     -23.291   8.810  -6.286  0.00  0.00    +0.000 OA
ATOM     14  C   UNL     1     -25.561   8.458  -5.583  0.00  0.00    +0.000 A 
ATOM     15  C   UNL     1     -26.855   8.193  -5.928  0.00  0.00    +0.000 A 
ATOM     16  O   UNL     1     -27.856   8.507  -5.003  0.00  0.00    +0.000 OA
ATOM     17  C   UNL     1     -27.244   8.202  -7.261  0.00  0.00    +0.000 A 
ENDBRANCH   9  10
ENDBRANCH   7   8
BRANCH   1  18
ATOM     18  O   UNL     1     -29.670   8.794 -11.024  0.00  0.00    +0.000 OA
BRANCH  18  30
ATOM     19  C   UNL     1     -27.838  12.207  -8.151  0.00  0.00    +0.000 A 
ATOM     20  C   UNL     1     -29.079  11.952  -7.576  0.00  0.00    +0.000 A 
ATOM     21  C   UNL     1     -29.823  13.107  -6.969  0.00  0.00    +0.000 C 
ATOM     22  N   UNL     1     -29.729  10.876  -8.084  0.00  0.00    +0.000 NA
ATOM     23  C   UNL     1     -29.308  10.200  -9.185  0.00  0.00    +0.000 A 
ATOM     24  N   UNL     1     -28.467  10.826  -9.982  0.00  0.00    +0.000 N 
ATOM     25  C   UNL     1     -27.534  11.590  -9.360  0.00  0.00    +0.000 A 
ATOM     26  O   UNL     1     -26.462  11.858  -9.982  0.00  0.00    +0.000 OA
ATOM     27  C   UNL     1     -28.473  10.922 -11.411  0.00  0.00    +0.000 C 
ATOM     28  C   UNL     1     -29.899  11.024 -11.838  0.00  0.00    +0.000 C 
ATOM     29  C   UNL     1     -30.921  10.827 -10.838  0.00  0.00    +0.000 C 
ATOM     30  C   UNL     1     -30.577   9.463  -9.932  0.00  0.00    +0.000 C 
BRANCH  19  32
ATOM     31  C   UNL     1     -26.058  12.810  -6.778  0.00  0.00    +0.000 C 
ATOM     32  C   UNL     1     -26.968  13.270  -7.591  0.00  0.00    +0.000 C 
ENDBRANCH  19  32
ENDBRANCH  18  30
ENDBRANCH   1  18
TORSDOF 5
ENDMDL
MODEL 10
REMARK VINA RESULT:      -7.3     19.741     24.141
REMARK  Name = 
REMARK  5 active torsions:
REMARK  status: ('A' for Active; 'I' for Inactive)
REMARK    1  A    between atoms: C_2  and  C_3
REMARK    2  A    between atoms: C_14  and  O_15
REMARK    3  A    between atoms: O_15  and  C_16
REMARK    4  A    between atoms: C_22  and  C_23
REMARK    5  A    between atoms: C_24  and  C_25
REMARK                            x       y       z     vdW  Elec       q    Type
REMARK                         _______ _______ _______ _____ _____    ______ ____
ROOT
ATOM      1  C   UNL     1     -30.480   6.736 -10.358  0.00  0.00    +0.000 A 
ATOM      2  C   UNL     1     -30.299   5.356 -10.409  0.00  0.00    +0.000 A 
ATOM      3  C   UNL     1     -29.087   4.786 -10.771  0.00  0.00    +0.000 A 
ATOM      4  O   UNL     1     -28.693   3.586 -10.222  0.00  0.00    +0.000 OA
ATOM      5  C   UNL     1     -28.325   5.503 -11.680  0.00  0.00    +0.000 A 
ATOM      6  C   UNL     1     -28.797   6.762 -12.038  0.00  0.00    +0.000 A 
ATOM      7  C   UNL     1     -29.669   7.475 -11.217  0.00  0.00    +0.000 A 
ENDROOT
BRANCH   7   8
ATOM      8  C   UNL     1     -29.350   8.825 -10.732  0.00  0.00    +0.000 C 
ATOM      9  C   UNL     1     -28.292   9.511 -11.030  0.00  0.00    +0.000 C 
BRANCH   9  10
ATOM     10  C   UNL     1     -27.296  10.019 -10.074  0.00  0.00    +0.000 A 
ATOM     11  C   UNL     1     -26.454   9.040  -9.557  0.00  0.00    +0.000 A 
ATOM     12  C   UNL     1     -26.090   8.999  -8.220  0.00  0.00    +0.000 A 
ATOM     13  O   UNL     1     -25.157   8.027  -7.844  0.00  0.00    +0.000 OA
ATOM     14  C   UNL     1     -26.352  10.066  -7.415  0.00  0.00    +0.000 A 
ATOM     15  C   UNL     1     -27.204  11.030  -7.872  0.00  0.00    +0.000 A 
ATOM     16  O   UNL     1     -27.221  12.258  -7.203  0.00  0.00    +0.000 OA
ATOM     17  C   UNL     1     -27.570  11.069  -9.210  0.00  0.00    +0.000 A 
ENDBRANCH   9  10
ENDBRANCH   7   8
BRANCH   1  18
ATOM     18  O   UNL     1     -31.677   7.314  -9.971  0.00  0.00    +0.000 OA
BRANCH  18  30
ATOM     19  C   UNL     1     -33.636   6.652  -5.614  0.00  0.00    +0.000 A 
ATOM     20  C   UNL     1     -34.208   5.632  -6.368  0.00  0.00    +0.000 A 
ATOM     21  C   UNL     1     -35.631   5.253  -6.074  0.00  0.00    +0.000 C 
ATOM     22  N   UNL     1     -33.670   5.470  -7.602  0.00  0.00    +0.000 NA
ATOM     23  C   UNL     1     -32.775   6.336  -8.147  0.00  0.00    +0.000 A 
ATOM     24  N   UNL     1     -32.715   7.540  -7.618  0.00  0.00    +0.000 N 
ATOM     25  C   UNL     1     -32.847   7.592  -6.269  0.00  0.00    +0.000 A 
ATOM     26  O   UNL     1     -32.380   8.598  -5.655  0.00  0.00    +0.000 OA
ATOM     27  C   UNL     1     -32.661   8.814  -8.269  0.00  0.00    +0.000 C 
ATOM     28  C   UNL     1     -33.534   8.727  -9.477  0.00  0.00    +0.000 C 
ATOM     29  C   UNL     1     -34.064   7.434  -9.837  0.00  0.00    +0.000 C 
ATOM     30  C   UNL     1     -32.848   6.286  -9.791  0.00  0.00    +0.000 C 
BRANCH  19  32
ATOM     31  C   UNL     1     -33.261   6.220  -3.358  0.00  0.00    +0.000 C 
ATOM     32  C   UNL     1     -34.040   6.841  -4.199  0.00  0.00    +0.000 C 
ENDBRANCH  19  32
ENDBRANCH  18  30
ENDBRANCH   1  18
TORSDOF 5
ENDMDL
