MODEL 1
REMARK VINA RESULT:      -6.9      0.000      0.000
REMARK  Name = 
REMARK  11 active torsions:
REMARK  status: ('A' for Active; 'I' for Inactive)
REMARK    1  A    between atoms: C_2  and  O_4
REMARK    2  A    between atoms: O_4  and  C_5
REMARK    3  A    between atoms: C_5  and  C_7
REMARK    4  A    between atoms: C_7  and  C_8
REMARK    5  A    between atoms: C_8  and  O_9
REMARK    6  A    between atoms: C_8  and  C_27
REMARK    7  A    between atoms: O_9  and  C_10
REMARK    8  A    between atoms: C_16  and  C_17
REMARK    9  A    between atoms: C_18  and  C_19
REMARK   10  A    between atoms: C_27  and  O_29
REMARK   11  A    between atoms: O_29  and  C_30
REMARK                            x       y       z     vdW  Elec       q    Type
REMARK                         _______ _______ _______ _____ _____    ______ ____
ROOT
ATOM      1  C   UNL     1     -18.204  -4.793   7.622  0.00  0.00    +0.000 A 
ATOM      2  C   UNL     1     -18.748  -4.886   8.898  0.00  0.00    +0.000 A 
ATOM      3  C   UNL     1     -19.517  -3.859   9.436  0.00  0.00    +0.000 A 
ATOM      4  O   UNL     1     -19.419  -3.503  10.778  0.00  0.00    +0.000 OA
ATOM      5  C   UNL     1     -20.052  -2.975   8.506  0.00  0.00    +0.000 A 
ATOM      6  C   UNL     1     -19.480  -2.847   7.246  0.00  0.00    +0.000 A 
ATOM      7  C   UNL     1     -18.425  -3.660   6.846  0.00  0.00    +0.000 A 
ENDROOT
BRANCH   7   8
ATOM      8  C   UNL     1     -17.285  -3.174   6.089  0.00  0.00    +0.000 C 
ATOM      9  C   UNL     1     -16.376  -2.359   6.379  0.00  0.00    +0.000 C 
BRANCH   9  10
ATOM     10  C   UNL     1     -16.085  -0.983   6.225  0.00  0.00    +0.000 A 
ATOM     11  C   UNL     1     -14.957  -0.423   5.642  0.00  0.00    +0.000 A 
ATOM     12  C   UNL     1     -14.840   0.956   5.512  0.00  0.00    +0.000 A 
ATOM     13  O   UNL     1     -13.761   1.507   4.854  0.00  0.00    +0.000 OA
ATOM     14  C   UNL     1     -15.658   1.800   6.239  0.00  0.00    +0.000 A 
ATOM     15  C   UNL     1     -16.712   1.259   6.953  0.00  0.00    +0.000 A 
ATOM     16  O   UNL     1     -17.521   2.060   7.760  0.00  0.00    +0.000 OA
ATOM     17  C   UNL     1     -16.958  -0.073   6.810  0.00  0.00    +0.000 A 
ENDBRANCH   9  10
ENDBRANCH   7   8
BRANCH   1  18
ATOM     18  O   UNL     1     -17.770  -5.915   6.908  0.00  0.00    +0.000 OA
BRANCH  18  19
ATOM     19  C   UNL     1     -19.034  -6.720   6.525  0.00  0.00    +0.000 C 
BRANCH  19  20
ATOM     20  C   UNL     1     -18.379  -7.248   5.139  0.00  0.00    +0.000 C 
ATOM     21  O   UNL     1     -19.130  -8.074   4.524  0.00  0.00    +0.000 OA
BRANCH  20  22
ATOM     22  O   UNL     1     -17.119  -7.783   5.453  0.00  0.00    +0.000 OA
BRANCH  22  23
ATOM     23  C   UNL     1     -16.018  -7.711   4.571  0.00  0.00    +0.000 C 
ATOM     24  C   UNL     1     -15.899  -8.981   3.767  0.00  0.00    +0.000 C 
ATOM     25  C   UNL     1     -16.043  -6.473   3.718  0.00  0.00    +0.000 C 
ENDBRANCH  22  23
ENDBRANCH  20  22
ENDBRANCH  19  20
BRANCH  19  26
ATOM     26  C   UNL     1     -18.509  -8.053   7.344  0.00  0.00    +0.000 C 
BRANCH  26  27
ATOM     27  C   UNL     1     -19.780  -8.602   7.914  0.00  0.00    +0.000 C 
ATOM     28  O   UNL     1     -19.759  -9.305   8.967  0.00  0.00    +0.000 OA
BRANCH  27  29
ATOM     29  O   UNL     1     -21.030  -8.318   7.361  0.00  0.00    +0.000 OA
BRANCH  29  31
ATOM     30  C   UNL     1     -22.874  -8.568   8.154  0.00  0.00    +0.000 C 
ATOM     31  C   UNL     1     -22.158  -8.010   8.177  0.00  0.00    +0.000 C 
ATOM     32  C   UNL     1     -21.972  -6.661   8.813  0.00  0.00    +0.000 C 
ENDBRANCH  29  31
ENDBRANCH  27  29
ENDBRANCH  26  27
ENDBRANCH  19  26
ENDBRANCH  18  19
ENDBRANCH   1  18
TORSDOF 11
ENDMDL
MODEL 2
REMARK VINA RESULT:      -6.8     16.662     23.514
REMARK  Name = 
REMARK  11 active torsions:
REMARK  status: ('A' for Active; 'I' for Inactive)
REMARK    1  A    between atoms: C_2  and  O_4
REMARK    2  A    between atoms: O_4  and  C_5
REMARK    3  A    between atoms: C_5  and  C_7
REMARK    4  A    between atoms: C_7  and  C_8
REMARK    5  A    between atoms: C_8  and  O_9
REMARK    6  A    between atoms: C_8  and  C_27
REMARK    7  A    between atoms: O_9  and  C_10
REMARK    8  A    between atoms: C_16  and  C_17
REMARK    9  A    between atoms: C_18  and  C_19
REMARK   10  A    between atoms: C_27  and  O_29
REMARK   11  A    between atoms: O_29  and  C_30
REMARK                            x       y       z     vdW  Elec       q    Type
REMARK                         _______ _______ _______ _____ _____    ______ ____
ROOT
ATOM      1  C   UNL     1     -15.001  17.227   0.375  0.00  0.00    +0.000 A 
ATOM      2  C   UNL     1     -14.866  18.541   0.809  0.00  0.00    +0.000 A 
ATOM      3  C   UNL     1     -13.997  18.879   1.840  0.00  0.00    +0.000 A 
ATOM      4  O   UNL     1     -14.334  19.837   2.793  0.00  0.00    +0.000 OA
ATOM      5  C   UNL     1     -12.997  17.948   2.096  0.00  0.00    +0.000 A 
ATOM      6  C   UNL     1     -13.151  16.624   1.705  0.00  0.00    +0.000 A 
ATOM      7  C   UNL     1     -14.257  16.212   0.966  0.00  0.00    +0.000 A 
ENDROOT
BRANCH   7   8
ATOM      8  C   UNL     1     -14.957  14.964   1.206  0.00  0.00    +0.000 C 
ATOM      9  C   UNL     1     -14.944  14.172   2.181  0.00  0.00    +0.000 C 
BRANCH   9  10
ATOM     10  C   UNL     1     -14.287  12.987   2.586  0.00  0.00    +0.000 A 
ATOM     11  C   UNL     1     -12.936  12.829   2.866  0.00  0.00    +0.000 A 
ATOM     12  C   UNL     1     -12.446  11.606   3.310  0.00  0.00    +0.000 A 
ATOM     13  O   UNL     1     -11.122  11.475   3.673  0.00  0.00    +0.000 OA
ATOM     14  C   UNL     1     -13.199  10.456   3.169  0.00  0.00    +0.000 A 
ATOM     15  C   UNL     1     -14.513  10.564   2.751  0.00  0.00    +0.000 A 
ATOM     16  O   UNL     1     -15.291   9.428   2.523  0.00  0.00    +0.000 OA
ATOM     17  C   UNL     1     -15.033  11.815   2.608  0.00  0.00    +0.000 A 
ENDBRANCH   9  10
ENDBRANCH   7   8
BRANCH   1  18
ATOM     18  O   UNL     1     -15.547  16.901  -0.872  0.00  0.00    +0.000 OA
BRANCH  18  19
ATOM     19  C   UNL     1     -15.424  18.162  -1.759  0.00  0.00    +0.000 C 
BRANCH  19  20
ATOM     20  C   UNL     1     -14.790  17.330  -2.998  0.00  0.00    +0.000 C 
ATOM     21  O   UNL     1     -14.699  16.082  -2.755  0.00  0.00    +0.000 OA
BRANCH  20  22
ATOM     22  O   UNL     1     -13.552  17.920  -3.303  0.00  0.00    +0.000 OA
BRANCH  22  23
ATOM     23  C   UNL     1     -13.151  18.209  -4.626  0.00  0.00    +0.000 C 
ATOM     24  C   UNL     1     -11.649  18.156  -4.747  0.00  0.00    +0.000 C 
ATOM     25  C   UNL     1     -13.855  17.353  -5.642  0.00  0.00    +0.000 C 
ENDBRANCH  22  23
ENDBRANCH  20  22
ENDBRANCH  19  20
BRANCH  19  26
ATOM     26  C   UNL     1     -16.955  17.975  -2.345  0.00  0.00    +0.000 C 
BRANCH  26  27
ATOM     27  C   UNL     1     -17.337  19.377  -2.702  0.00  0.00    +0.000 C 
ATOM     28  O   UNL     1     -17.217  20.311  -1.855  0.00  0.00    +0.000 OA
BRANCH  27  29
ATOM     29  O   UNL     1     -17.773  19.729  -3.980  0.00  0.00    +0.000 OA
BRANCH  29  31
ATOM     30  C   UNL     1     -16.280  20.213  -5.257  0.00  0.00    +0.000 C 
ATOM     31  C   UNL     1     -16.931  19.593  -5.123  0.00  0.00    +0.000 C 
ATOM     32  C   UNL     1     -17.439  18.483  -6.000  0.00  0.00    +0.000 C 
ENDBRANCH  29  31
ENDBRANCH  27  29
ENDBRANCH  26  27
ENDBRANCH  19  26
ENDBRANCH  18  19
ENDBRANCH   1  18
TORSDOF 11
ENDMDL
MODEL 3
REMARK VINA RESULT:      -6.6     16.218     23.060
REMARK  Name = 
REMARK  11 active torsions:
REMARK  status: ('A' for Active; 'I' for Inactive)
REMARK    1  A    between atoms: C_2  and  O_4
REMARK    2  A    between atoms: O_4  and  C_5
REMARK    3  A    between atoms: C_5  and  C_7
REMARK    4  A    between atoms: C_7  and  C_8
REMARK    5  A    between atoms: C_8  and  O_9
REMARK    6  A    between atoms: C_8  and  C_27
REMARK    7  A    between atoms: O_9  and  C_10
REMARK    8  A    between atoms: C_16  and  C_17
REMARK    9  A    between atoms: C_18  and  C_19
REMARK   10  A    between atoms: C_27  and  O_29
REMARK   11  A    between atoms: O_29  and  C_30
REMARK                            x       y       z     vdW  Elec       q    Type
REMARK                         _______ _______ _______ _____ _____    ______ ____
ROOT
ATOM      1  C   UNL     1     -15.044  16.956   0.556  0.00  0.00    +0.000 A 
ATOM      2  C   UNL     1     -14.667  18.246   0.912  0.00  0.00    +0.000 A 
ATOM      3  C   UNL     1     -13.604  18.480   1.777  0.00  0.00    +0.000 A 
ATOM      4  O   UNL     1     -13.652  19.491   2.732  0.00  0.00    +0.000 OA
ATOM      5  C   UNL     1     -12.708  17.425   1.906  0.00  0.00    +0.000 A 
ATOM      6  C   UNL     1     -13.097  16.128   1.595  0.00  0.00    +0.000 A 
ATOM      7  C   UNL     1     -14.353  15.859   1.060  0.00  0.00    +0.000 A 
ENDROOT
BRANCH   7   8
ATOM      8  C   UNL     1     -15.164  14.722   1.457  0.00  0.00    +0.000 C 
ATOM      9  C   UNL     1     -15.034  13.888   2.386  0.00  0.00    +0.000 C 
BRANCH   9  10
ATOM     10  C   UNL     1     -14.497  12.596   2.595  0.00  0.00    +0.000 A 
ATOM     11  C   UNL     1     -15.197  11.401   2.693  0.00  0.00    +0.000 A 
ATOM     12  C   UNL     1     -14.519  10.197   2.843  0.00  0.00    +0.000 A 
ATOM     13  O   UNL     1     -15.210   9.003   2.851  0.00  0.00    +0.000 OA
ATOM     14  C   UNL     1     -13.192  10.183   3.228  0.00  0.00    +0.000 A 
ATOM     15  C   UNL     1     -12.499  11.378   3.282  0.00  0.00    +0.000 A 
ATOM     16  O   UNL     1     -11.179  11.425   3.734  0.00  0.00    +0.000 OA
ATOM     17  C   UNL     1     -13.133  12.500   2.841  0.00  0.00    +0.000 A 
ENDBRANCH   9  10
ENDBRANCH   7   8
BRANCH   1  18
ATOM     18  O   UNL     1     -15.824  16.686  -0.574  0.00  0.00    +0.000 OA
BRANCH  18  19
ATOM     19  C   UNL     1     -15.858  17.984  -1.416  0.00  0.00    +0.000 C 
BRANCH  19  20
ATOM     20  C   UNL     1     -15.384  17.218  -2.764  0.00  0.00    +0.000 C 
ATOM     21  O   UNL     1     -14.358  16.485  -2.579  0.00  0.00    +0.000 OA
BRANCH  20  22
ATOM     22  O   UNL     1     -15.184  18.199  -3.750  0.00  0.00    +0.000 OA
BRANCH  22  23
ATOM     23  C   UNL     1     -15.477  17.981  -5.114  0.00  0.00    +0.000 C 
ATOM     24  C   UNL     1     -16.188  19.175  -5.701  0.00  0.00    +0.000 C 
ATOM     25  C   UNL     1     -14.267  17.569  -5.904  0.00  0.00    +0.000 C 
ENDBRANCH  22  23
ENDBRANCH  20  22
ENDBRANCH  19  20
BRANCH  19  26
ATOM     26  C   UNL     1     -17.451  17.773  -1.790  0.00  0.00    +0.000 C 
BRANCH  26  27
ATOM     27  C   UNL     1     -18.136  18.184  -0.524  0.00  0.00    +0.000 C 
ATOM     28  O   UNL     1     -18.978  17.415   0.028  0.00  0.00    +0.000 OA
BRANCH  27  29
ATOM     29  O   UNL     1     -17.840  19.380   0.130  0.00  0.00    +0.000 OA
BRANCH  29  31
ATOM     30  C   UNL     1     -17.578  21.274  -0.533  0.00  0.00    +0.000 C 
ATOM     31  C   UNL     1     -18.221  20.644  -0.410  0.00  0.00    +0.000 C 
ATOM     32  C   UNL     1     -19.719  20.723  -0.510  0.00  0.00    +0.000 C 
ENDBRANCH  29  31
ENDBRANCH  27  29
ENDBRANCH  26  27
ENDBRANCH  19  26
ENDBRANCH  18  19
ENDBRANCH   1  18
TORSDOF 11
ENDMDL
MODEL 4
REMARK VINA RESULT:      -6.6      2.447      5.929
REMARK  Name = 
REMARK  11 active torsions:
REMARK  status: ('A' for Active; 'I' for Inactive)
REMARK    1  A    between atoms: C_2  and  O_4
REMARK    2  A    between atoms: O_4  and  C_5
REMARK    3  A    between atoms: C_5  and  C_7
REMARK    4  A    between atoms: C_7  and  C_8
REMARK    5  A    between atoms: C_8  and  O_9
REMARK    6  A    between atoms: C_8  and  C_27
REMARK    7  A    between atoms: O_9  and  C_10
REMARK    8  A    between atoms: C_16  and  C_17
REMARK    9  A    between atoms: C_18  and  C_19
REMARK   10  A    between atoms: C_27  and  O_29
REMARK   11  A    between atoms: O_29  and  C_30
REMARK                            x       y       z     vdW  Elec       q    Type
REMARK                         _______ _______ _______ _____ _____    ______ ____
ROOT
ATOM      1  C   UNL     1     -17.876  -8.178   4.300  0.00  0.00    +0.000 A 
ATOM      2  C   UNL     1     -17.932  -9.349   3.554  0.00  0.00    +0.000 A 
ATOM      3  C   UNL     1     -16.818  -9.836   2.880  0.00  0.00    +0.000 A 
ATOM      4  O   UNL     1     -16.924 -10.415   1.619  0.00  0.00    +0.000 OA
ATOM      5  C   UNL     1     -15.597  -9.351   3.337  0.00  0.00    +0.000 A 
ATOM      6  C   UNL     1     -15.533  -8.156   4.043  0.00  0.00    +0.000 A 
ATOM      7  C   UNL     1     -16.687  -7.463   4.396  0.00  0.00    +0.000 A 
ENDROOT
BRANCH   7   8
ATOM      8  C   UNL     1     -16.804  -6.018   4.322  0.00  0.00    +0.000 C 
ATOM      9  C   UNL     1     -16.551  -5.115   5.158  0.00  0.00    +0.000 C 
BRANCH   9  10
ATOM     10  C   UNL     1     -17.224  -4.347   6.136  0.00  0.00    +0.000 A 
ATOM     11  C   UNL     1     -17.139  -2.975   6.331  0.00  0.00    +0.000 A 
ATOM     12  C   UNL     1     -17.910  -2.352   7.306  0.00  0.00    +0.000 A 
ATOM     13  O   UNL     1     -17.892  -0.980   7.440  0.00  0.00    +0.000 OA
ATOM     14  C   UNL     1     -18.511  -3.095   8.305  0.00  0.00    +0.000 A 
ATOM     15  C   UNL     1     -18.490  -4.475   8.217  0.00  0.00    +0.000 A 
ATOM     16  O   UNL     1     -19.019  -5.269   9.236  0.00  0.00    +0.000 OA
ATOM     17  C   UNL     1     -17.972  -5.031   7.086  0.00  0.00    +0.000 A 
ENDBRANCH   9  10
ENDBRANCH   7   8
BRANCH   1  18
ATOM     18  O   UNL     1     -18.825  -7.865   5.280  0.00  0.00    +0.000 OA
BRANCH  18  19
ATOM     19  C   UNL     1     -19.295  -9.206   5.893  0.00  0.00    +0.000 C 
BRANCH  19  20
ATOM     20  C   UNL     1     -19.208  -8.637   7.409  0.00  0.00    +0.000 C 
ATOM     21  O   UNL     1     -18.018  -8.338   7.755  0.00  0.00    +0.000 OA
BRANCH  20  22
ATOM     22  O   UNL     1     -19.796  -9.599   8.247  0.00  0.00    +0.000 OA
BRANCH  22  23
ATOM     23  C   UNL     1     -20.414  -9.267   9.473  0.00  0.00    +0.000 C 
ATOM     24  C   UNL     1     -21.108  -7.932   9.372  0.00  0.00    +0.000 C 
ATOM     25  C   UNL     1     -21.312 -10.361   9.980  0.00  0.00    +0.000 C 
ENDBRANCH  22  23
ENDBRANCH  20  22
ENDBRANCH  19  20
BRANCH  19  26
ATOM     26  C   UNL     1     -20.883  -8.779   5.765  0.00  0.00    +0.000 C 
BRANCH  26  27
ATOM     27  C   UNL     1     -21.406  -9.778   4.780  0.00  0.00    +0.000 C 
ATOM     28  O   UNL     1     -21.199  -9.624   3.540  0.00  0.00    +0.000 OA
BRANCH  27  29
ATOM     29  O   UNL     1     -22.078 -10.935   5.176  0.00  0.00    +0.000 OA
BRANCH  29  31
ATOM     30  C   UNL     1     -21.268 -12.273   6.459  0.00  0.00    +0.000 C 
ATOM     31  C   UNL     1     -21.375 -12.111   5.572  0.00  0.00    +0.000 C 
ATOM     32  C   UNL     1     -20.784 -12.781   4.363  0.00  0.00    +0.000 C 
ENDBRANCH  29  31
ENDBRANCH  27  29
ENDBRANCH  26  27
ENDBRANCH  19  26
ENDBRANCH  18  19
ENDBRANCH   1  18
TORSDOF 11
ENDMDL
MODEL 5
REMARK VINA RESULT:      -6.6      6.272      8.803
REMARK  Name = 
REMARK  11 active torsions:
REMARK  status: ('A' for Active; 'I' for Inactive)
REMARK    1  A    between atoms: C_2  and  O_4
REMARK    2  A    between atoms: O_4  and  C_5
REMARK    3  A    between atoms: C_5  and  C_7
REMARK    4  A    between atoms: C_7  and  C_8
REMARK    5  A    between atoms: C_8  and  O_9
REMARK    6  A    between atoms: C_8  and  C_27
REMARK    7  A    between atoms: O_9  and  C_10
REMARK    8  A    between atoms: C_16  and  C_17
REMARK    9  A    between atoms: C_18  and  C_19
REMARK   10  A    between atoms: C_27  and  O_29
REMARK   11  A    between atoms: O_29  and  C_30
REMARK                            x       y       z     vdW  Elec       q    Type
REMARK                         _______ _______ _______ _____ _____    ______ ____
ROOT
ATOM      1  C   UNL     1     -24.968  -2.848   7.166  0.00  0.00    +0.000 A 
ATOM      2  C   UNL     1     -25.448  -4.149   7.267  0.00  0.00    +0.000 A 
ATOM      3  C   UNL     1     -24.688  -5.162   7.840  0.00  0.00    +0.000 A 
ATOM      4  O   UNL     1     -24.685  -6.453   7.321  0.00  0.00    +0.000 OA
ATOM      5  C   UNL     1     -23.655  -4.728   8.663  0.00  0.00    +0.000 A 
ATOM      6  C   UNL     1     -23.142  -3.443   8.532  0.00  0.00    +0.000 A 
ATOM      7  C   UNL     1     -23.703  -2.528   7.647  0.00  0.00    +0.000 A 
ENDROOT
BRANCH   7   8
ATOM      8  C   UNL     1     -22.916  -1.629   6.823  0.00  0.00    +0.000 C 
ATOM      9  C   UNL     1     -21.711  -1.658   6.469  0.00  0.00    +0.000 C 
BRANCH   9  10
ATOM     10  C   UNL     1     -20.465  -1.132   6.880  0.00  0.00    +0.000 A 
ATOM     11  C   UNL     1     -20.178   0.184   7.217  0.00  0.00    +0.000 A 
ATOM     12  C   UNL     1     -18.908   0.539   7.658  0.00  0.00    +0.000 A 
ATOM     13  O   UNL     1     -18.650   1.827   8.077  0.00  0.00    +0.000 OA
ATOM     14  C   UNL     1     -17.835  -0.309   7.460  0.00  0.00    +0.000 A 
ATOM     15  C   UNL     1     -18.071  -1.586   6.985  0.00  0.00    +0.000 A 
ATOM     16  O   UNL     1     -17.015  -2.454   6.699  0.00  0.00    +0.000 OA
ATOM     17  C   UNL     1     -19.366  -1.982   6.844  0.00  0.00    +0.000 A 
ENDBRANCH   9  10
ENDBRANCH   7   8
BRANCH   1  18
ATOM     18  O   UNL     1     -25.811  -1.750   6.964  0.00  0.00    +0.000 OA
BRANCH  18  19
ATOM     19  C   UNL     1     -26.773  -2.128   5.814  0.00  0.00    +0.000 C 
BRANCH  19  20
ATOM     20  C   UNL     1     -27.964  -1.190   6.391  0.00  0.00    +0.000 C 
ATOM     21  O   UNL     1     -29.057  -1.826   6.549  0.00  0.00    +0.000 OA
BRANCH  20  22
ATOM     22  O   UNL     1     -28.089  -0.096   5.519  0.00  0.00    +0.000 OA
BRANCH  22  23
ATOM     23  C   UNL     1     -28.936   1.001   5.788  0.00  0.00    +0.000 C 
ATOM     24  C   UNL     1     -28.361   1.857   6.889  0.00  0.00    +0.000 C 
ATOM     25  C   UNL     1     -29.277   1.784   4.550  0.00  0.00    +0.000 C 
ENDBRANCH  22  23
ENDBRANCH  20  22
ENDBRANCH  19  20
BRANCH  19  26
ATOM     26  C   UNL     1     -26.205  -0.912   4.855  0.00  0.00    +0.000 C 
BRANCH  26  27
ATOM     27  C   UNL     1     -25.442  -1.659   3.806  0.00  0.00    +0.000 C 
ATOM     28  O   UNL     1     -25.607  -2.906   3.658  0.00  0.00    +0.000 OA
BRANCH  27  29
ATOM     29  O   UNL     1     -24.576  -1.021   2.917  0.00  0.00    +0.000 OA
BRANCH  29  31
ATOM     30  C   UNL     1     -22.649  -1.616   3.075  0.00  0.00    +0.000 C 
ATOM     31  C   UNL     1     -23.352  -1.623   2.500  0.00  0.00    +0.000 C 
ATOM     32  C   UNL     1     -23.445  -2.016   1.053  0.00  0.00    +0.000 C 
ENDBRANCH  29  31
ENDBRANCH  27  29
ENDBRANCH  26  27
ENDBRANCH  19  26
ENDBRANCH  18  19
ENDBRANCH   1  18
TORSDOF 11
ENDMDL
MODEL 6
REMARK VINA RESULT:      -6.6      2.424      5.409
REMARK  Name = 
REMARK  11 active torsions:
REMARK  status: ('A' for Active; 'I' for Inactive)
REMARK    1  A    between atoms: C_2  and  O_4
REMARK    2  A    between atoms: O_4  and  C_5
REMARK    3  A    between atoms: C_5  and  C_7
REMARK    4  A    between atoms: C_7  and  C_8
REMARK    5  A    between atoms: C_8  and  O_9
REMARK    6  A    between atoms: C_8  and  C_27
REMARK    7  A    between atoms: O_9  and  C_10
REMARK    8  A    between atoms: C_16  and  C_17
REMARK    9  A    between atoms: C_18  and  C_19
REMARK   10  A    between atoms: C_27  and  O_29
REMARK   11  A    between atoms: O_29  and  C_30
REMARK                            x       y       z     vdW  Elec       q    Type
REMARK                         _______ _______ _______ _____ _____    ______ ____
ROOT
ATOM      1  C   UNL     1     -17.880  -8.264   4.513  0.00  0.00    +0.000 A 
ATOM      2  C   UNL     1     -17.941  -9.417   3.739  0.00  0.00    +0.000 A 
ATOM      3  C   UNL     1     -16.876  -9.809   2.934  0.00  0.00    +0.000 A 
ATOM      4  O   UNL     1     -17.081 -10.361   1.673  0.00  0.00    +0.000 OA
ATOM      5  C   UNL     1     -15.648  -9.253   3.273  0.00  0.00    +0.000 A 
ATOM      6  C   UNL     1     -15.586  -8.075   4.007  0.00  0.00    +0.000 A 
ATOM      7  C   UNL     1     -16.737  -7.472   4.504  0.00  0.00    +0.000 A 
ENDROOT
BRANCH   7   8
ATOM      8  C   UNL     1     -16.956  -6.037   4.491  0.00  0.00    +0.000 C 
ATOM      9  C   UNL     1     -16.709  -5.146   5.341  0.00  0.00    +0.000 C 
BRANCH   9  10
ATOM     10  C   UNL     1     -17.363  -4.458   6.389  0.00  0.00    +0.000 A 
ATOM     11  C   UNL     1     -18.267  -4.983   7.302  0.00  0.00    +0.000 A 
ATOM     12  C   UNL     1     -18.786  -4.188   8.318  0.00  0.00    +0.000 A 
ATOM     13  O   UNL     1     -19.614  -4.732   9.277  0.00  0.00    +0.000 OA
ATOM     14  C   UNL     1     -18.685  -2.811   8.250  0.00  0.00    +0.000 A 
ATOM     15  C   UNL     1     -17.905  -2.245   7.259  0.00  0.00    +0.000 A 
ATOM     16  O   UNL     1     -17.830  -0.860   7.105  0.00  0.00    +0.000 OA
ATOM     17  C   UNL     1     -17.181  -3.083   6.465  0.00  0.00    +0.000 A 
ENDBRANCH   9  10
ENDBRANCH   7   8
BRANCH   1  18
ATOM     18  O   UNL     1     -18.735  -8.043   5.599  0.00  0.00    +0.000 OA
BRANCH  18  19
ATOM     19  C   UNL     1     -19.370  -9.408   5.954  0.00  0.00    +0.000 C 
BRANCH  19  20
ATOM     20  C   UNL     1     -18.769  -9.388   7.461  0.00  0.00    +0.000 C 
ATOM     21  O   UNL     1     -18.094  -8.334   7.706  0.00  0.00    +0.000 OA
BRANCH  20  22
ATOM     22  O   UNL     1     -18.023 -10.566   7.626  0.00  0.00    +0.000 OA
BRANCH  22  23
ATOM     23  C   UNL     1     -16.617 -10.567   7.752  0.00  0.00    +0.000 C 
ATOM     24  C   UNL     1     -16.192 -11.379   8.950  0.00  0.00    +0.000 C 
ATOM     25  C   UNL     1     -15.924 -10.981   6.483  0.00  0.00    +0.000 C 
ENDBRANCH  22  23
ENDBRANCH  20  22
ENDBRANCH  19  20
BRANCH  19  26
ATOM     26  C   UNL     1     -20.775  -8.697   6.447  0.00  0.00    +0.000 C 
BRANCH  26  27
ATOM     27  C   UNL     1     -21.759  -9.196   5.435  0.00  0.00    +0.000 C 
ATOM     28  O   UNL     1     -21.359  -9.717   4.353  0.00  0.00    +0.000 OA
BRANCH  27  29
ATOM     29  O   UNL     1     -23.137  -9.170   5.659  0.00  0.00    +0.000 OA
BRANCH  29  31
ATOM     30  C   UNL     1     -23.865 -10.858   6.503  0.00  0.00    +0.000 C 
ATOM     31  C   UNL     1     -23.747  -9.972   6.668  0.00  0.00    +0.000 C 
ATOM     32  C   UNL     1     -24.243  -9.096   7.783  0.00  0.00    +0.000 C 
ENDBRANCH  29  31
ENDBRANCH  27  29
ENDBRANCH  26  27
ENDBRANCH  19  26
ENDBRANCH  18  19
ENDBRANCH   1  18
TORSDOF 11
ENDMDL
MODEL 7
REMARK VINA RESULT:      -6.4     17.042     20.057
REMARK  Name = 
REMARK  11 active torsions:
REMARK  status: ('A' for Active; 'I' for Inactive)
REMARK    1  A    between atoms: C_2  and  O_4
REMARK    2  A    between atoms: O_4  and  C_5
REMARK    3  A    between atoms: C_5  and  C_7
REMARK    4  A    between atoms: C_7  and  C_8
REMARK    5  A    between atoms: C_8  and  O_9
REMARK    6  A    between atoms: C_8  and  C_27
REMARK    7  A    between atoms: O_9  and  C_10
REMARK    8  A    between atoms: C_16  and  C_17
REMARK    9  A    between atoms: C_18  and  C_19
REMARK   10  A    between atoms: C_27  and  O_29
REMARK   11  A    between atoms: O_29  and  C_30
REMARK                            x       y       z     vdW  Elec       q    Type
REMARK                         _______ _______ _______ _____ _____    ______ ____
ROOT
ATOM      1  C   UNL     1     -24.793   9.785  -6.166  0.00  0.00    +0.000 A 
ATOM      2  C   UNL     1     -25.220  11.101  -6.035  0.00  0.00    +0.000 A 
ATOM      3  C   UNL     1     -24.767  11.913  -5.001  0.00  0.00    +0.000 A 
ATOM      4  O   UNL     1     -25.612  12.809  -4.354  0.00  0.00    +0.000 OA
ATOM      5  C   UNL     1     -23.585  11.493  -4.399  0.00  0.00    +0.000 A 
ATOM      6  C   UNL     1     -23.181  10.167  -4.489  0.00  0.00    +0.000 A 
ATOM      7  C   UNL     1     -23.887   9.247  -5.258  0.00  0.00    +0.000 A 
ENDROOT
BRANCH   7   8
ATOM      8  C   UNL     1     -24.144   7.883  -4.833  0.00  0.00    +0.000 C 
ATOM      9  C   UNL     1     -24.553   7.410  -3.744  0.00  0.00    +0.000 C 
BRANCH   9  10
ATOM     10  C   UNL     1     -24.026   6.863  -2.552  0.00  0.00    +0.000 A 
ATOM     11  C   UNL     1     -22.929   7.318  -1.833  0.00  0.00    +0.000 A 
ATOM     12  C   UNL     1     -22.564   6.704  -0.639  0.00  0.00    +0.000 A 
ATOM     13  O   UNL     1     -21.530   7.211   0.119  0.00  0.00    +0.000 OA
ATOM     14  C   UNL     1     -23.058   5.455  -0.314  0.00  0.00    +0.000 A 
ATOM     15  C   UNL     1     -24.056   4.906  -1.097  0.00  0.00    +0.000 A 
ATOM     16  O   UNL     1     -24.535   3.617  -0.853  0.00  0.00    +0.000 OA
ATOM     17  C   UNL     1     -24.583   5.678  -2.087  0.00  0.00    +0.000 A 
ENDBRANCH   9  10
ENDBRANCH   7   8
BRANCH   1  18
ATOM     18  O   UNL     1     -24.908   9.074  -7.366  0.00  0.00    +0.000 OA
BRANCH  18  19
ATOM     19  C   UNL     1     -26.325   9.356  -7.920  0.00  0.00    +0.000 C 
BRANCH  19  20
ATOM     20  C   UNL     1     -26.089   8.423  -9.225  0.00  0.00    +0.000 C 
ATOM     21  O   UNL     1     -24.957   8.626  -9.776  0.00  0.00    +0.000 OA
BRANCH  20  22
ATOM     22  O   UNL     1     -27.169   8.647 -10.096  0.00  0.00    +0.000 OA
BRANCH  22  23
ATOM     23  C   UNL     1     -27.934   7.596 -10.647  0.00  0.00    +0.000 C 
ATOM     24  C   UNL     1     -28.265   7.881 -12.090  0.00  0.00    +0.000 C 
ATOM     25  C   UNL     1     -27.296   6.250 -10.443  0.00  0.00    +0.000 C 
ENDBRANCH  22  23
ENDBRANCH  20  22
ENDBRANCH  19  20
BRANCH  19  26
ATOM     26  C   UNL     1     -26.974   8.099  -7.072  0.00  0.00    +0.000 C 
BRANCH  26  27
ATOM     27  C   UNL     1     -28.278   8.666  -6.604  0.00  0.00    +0.000 C 
ATOM     28  O   UNL     1     -29.351   8.401  -7.221  0.00  0.00    +0.000 OA
BRANCH  27  29
ATOM     29  O   UNL     1     -28.381   9.446  -5.451  0.00  0.00    +0.000 OA
BRANCH  29  31
ATOM     30  C   UNL     1     -27.509   9.485  -3.626  0.00  0.00    +0.000 C 
ATOM     31  C   UNL     1     -27.996   8.947  -4.172  0.00  0.00    +0.000 C 
ATOM     32  C   UNL     1     -28.359   7.493  -4.063  0.00  0.00    +0.000 C 
ENDBRANCH  29  31
ENDBRANCH  27  29
ENDBRANCH  26  27
ENDBRANCH  19  26
ENDBRANCH  18  19
ENDBRANCH   1  18
TORSDOF 11
ENDMDL
MODEL 8
REMARK VINA RESULT:      -6.3     20.924     23.842
REMARK  Name = 
REMARK  11 active torsions:
REMARK  status: ('A' for Active; 'I' for Inactive)
REMARK    1  A    between atoms: C_2  and  O_4
REMARK    2  A    between atoms: O_4  and  C_5
REMARK    3  A    between atoms: C_5  and  C_7
REMARK    4  A    between atoms: C_7  and  C_8
REMARK    5  A    between atoms: C_8  and  O_9
REMARK    6  A    between atoms: C_8  and  C_27
REMARK    7  A    between atoms: O_9  and  C_10
REMARK    8  A    between atoms: C_16  and  C_17
REMARK    9  A    between atoms: C_18  and  C_19
REMARK   10  A    between atoms: C_27  and  O_29
REMARK   11  A    between atoms: O_29  and  C_30
REMARK                            x       y       z     vdW  Elec       q    Type
REMARK                         _______ _______ _______ _____ _____    ______ ____
ROOT
ATOM      1  C   UNL     1     -25.811   9.720  -7.251  0.00  0.00    +0.000 A 
ATOM      2  C   UNL     1     -25.352  10.348  -6.099  0.00  0.00    +0.000 A 
ATOM      3  C   UNL     1     -24.366   9.775  -5.303  0.00  0.00    +0.000 A 
ATOM      4  O   UNL     1     -24.415   9.850  -3.915  0.00  0.00    +0.000 OA
ATOM      5  C   UNL     1     -23.591   8.807  -5.933  0.00  0.00    +0.000 A 
ATOM      6  C   UNL     1     -24.068   8.146  -7.058  0.00  0.00    +0.000 A 
ATOM      7  C   UNL     1     -25.282   8.495  -7.642  0.00  0.00    +0.000 A 
ENDROOT
BRANCH   7   8
ATOM      8  C   UNL     1     -26.233   7.522  -8.149  0.00  0.00    +0.000 C 
ATOM      9  C   UNL     1     -26.546   7.191  -9.319  0.00  0.00    +0.000 C 
BRANCH   9  10
ATOM     10  C   UNL     1     -27.521   7.505 -10.293  0.00  0.00    +0.000 A 
ATOM     11  C   UNL     1     -27.694   8.717 -10.949  0.00  0.00    +0.000 A 
ATOM     12  C   UNL     1     -28.670   8.855 -11.931  0.00  0.00    +0.000 A 
ATOM     13  O   UNL     1     -28.781  10.030 -12.643  0.00  0.00    +0.000 OA
ATOM     14  C   UNL     1     -29.687   7.927 -12.042  0.00  0.00    +0.000 A 
ATOM     15  C   UNL     1     -29.621   6.768 -11.292  0.00  0.00    +0.000 A 
ATOM     16  O   UNL     1     -30.659   5.834 -11.315  0.00  0.00    +0.000 OA
ATOM     17  C   UNL     1     -28.492   6.548 -10.561  0.00  0.00    +0.000 A 
ENDBRANCH   9  10
ENDBRANCH   7   8
BRANCH   1  18
ATOM     18  O   UNL     1     -26.493  10.410  -8.261  0.00  0.00    +0.000 OA
BRANCH  18  19
ATOM     19  C   UNL     1     -27.329  11.511  -7.565  0.00  0.00    +0.000 C 
BRANCH  19  20
ATOM     20  C   UNL     1     -26.911  12.633  -8.659  0.00  0.00    +0.000 C 
ATOM     21  O   UNL     1     -26.797  12.154  -9.835  0.00  0.00    +0.000 OA
BRANCH  20  22
ATOM     22  O   UNL     1     -25.731  13.241  -8.200  0.00  0.00    +0.000 OA
BRANCH  22  23
ATOM     23  C   UNL     1     -25.546  14.641  -8.196  0.00  0.00    +0.000 C 
ATOM     24  C   UNL     1     -24.737  15.072  -9.394  0.00  0.00    +0.000 C 
ATOM     25  C   UNL     1     -26.840  15.393  -8.058  0.00  0.00    +0.000 C 
ENDBRANCH  22  23
ENDBRANCH  20  22
ENDBRANCH  19  20
BRANCH  19  26
ATOM     26  C   UNL     1     -28.683  11.107  -8.416  0.00  0.00    +0.000 C 
BRANCH  26  27
ATOM     27  C   UNL     1     -29.298  10.047  -7.558  0.00  0.00    +0.000 C 
ATOM     28  O   UNL     1     -29.604  10.293  -6.353  0.00  0.00    +0.000 OA
BRANCH  27  29
ATOM     29  O   UNL     1     -29.618   8.780  -8.050  0.00  0.00    +0.000 OA
BRANCH  29  31
ATOM     30  C   UNL     1     -31.249   7.598  -7.862  0.00  0.00    +0.000 C 
ATOM     31  C   UNL     1     -30.970   8.372  -8.246  0.00  0.00    +0.000 C 
ATOM     32  C   UNL     1     -31.635   9.280  -9.242  0.00  0.00    +0.000 C 
ENDBRANCH  29  31
ENDBRANCH  27  29
ENDBRANCH  26  27
ENDBRANCH  19  26
ENDBRANCH  18  19
ENDBRANCH   1  18
TORSDOF 11
ENDMDL
MODEL 9
REMARK VINA RESULT:      -6.3     16.807     19.401
REMARK  Name = 
REMARK  11 active torsions:
REMARK  status: ('A' for Active; 'I' for Inactive)
REMARK    1  A    between atoms: C_2  and  O_4
REMARK    2  A    between atoms: O_4  and  C_5
REMARK    3  A    between atoms: C_5  and  C_7
REMARK    4  A    between atoms: C_7  and  C_8
REMARK    5  A    between atoms: C_8  and  O_9
REMARK    6  A    between atoms: C_8  and  C_27
REMARK    7  A    between atoms: O_9  and  C_10
REMARK    8  A    between atoms: C_16  and  C_17
REMARK    9  A    between atoms: C_18  and  C_19
REMARK   10  A    between atoms: C_27  and  O_29
REMARK   11  A    between atoms: O_29  and  C_30
REMARK                            x       y       z     vdW  Elec       q    Type
REMARK                         _______ _______ _______ _____ _____    ______ ____
ROOT
ATOM      1  C   UNL     1     -24.674   7.969  -3.910  0.00  0.00    +0.000 A 
ATOM      2  C   UNL     1     -23.945   8.194  -2.748  0.00  0.00    +0.000 A 
ATOM      3  C   UNL     1     -22.979   9.191  -2.677  0.00  0.00    +0.000 A 
ATOM      4  O   UNL     1     -21.783   9.000  -1.991  0.00  0.00    +0.000 OA
ATOM      5  C   UNL     1     -23.090  10.187  -3.642  0.00  0.00    +0.000 A 
ATOM      6  C   UNL     1     -23.778   9.948  -4.825  0.00  0.00    +0.000 A 
ATOM      7  C   UNL     1     -24.453   8.750  -5.039  0.00  0.00    +0.000 A 
ENDROOT
BRANCH   7   8
ATOM      8  C   UNL     1     -24.448   8.047  -6.309  0.00  0.00    +0.000 C 
ATOM      9  C   UNL     1     -24.744   8.420  -7.471  0.00  0.00    +0.000 C 
BRANCH   9  10
ATOM     10  C   UNL     1     -25.854   8.405  -8.347  0.00  0.00    +0.000 A 
ATOM     11  C   UNL     1     -26.381   7.310  -9.018  0.00  0.00    +0.000 A 
ATOM     12  C   UNL     1     -27.519   7.446  -9.806  0.00  0.00    +0.000 A 
ATOM     13  O   UNL     1     -28.092   6.341 -10.400  0.00  0.00    +0.000 OA
ATOM     14  C   UNL     1     -27.950   8.697 -10.205  0.00  0.00    +0.000 A 
ATOM     15  C   UNL     1     -27.348   9.816  -9.662  0.00  0.00    +0.000 A 
ATOM     16  O   UNL     1     -27.698  11.099 -10.087  0.00  0.00    +0.000 OA
ATOM     17  C   UNL     1     -26.431   9.627  -8.672  0.00  0.00    +0.000 A 
ENDBRANCH   9  10
ENDBRANCH   7   8
BRANCH   1  18
ATOM     18  O   UNL     1     -25.885   7.268  -3.913  0.00  0.00    +0.000 OA
BRANCH  18  19
ATOM     19  C   UNL     1     -26.519   7.463  -2.515  0.00  0.00    +0.000 C 
BRANCH  19  20
ATOM     20  C   UNL     1     -27.885   8.084  -3.131  0.00  0.00    +0.000 C 
ATOM     21  O   UNL     1     -28.915   7.786  -2.442  0.00  0.00    +0.000 OA
BRANCH  20  22
ATOM     22  O   UNL     1     -27.974   7.649  -4.464  0.00  0.00    +0.000 OA
BRANCH  22  23
ATOM     23  C   UNL     1     -28.158   8.538  -5.546  0.00  0.00    +0.000 C 
ATOM     24  C   UNL     1     -29.505   8.322  -6.188  0.00  0.00    +0.000 C 
ATOM     25  C   UNL     1     -27.910   9.971  -5.163  0.00  0.00    +0.000 C 
ENDBRANCH  22  23
ENDBRANCH  20  22
ENDBRANCH  19  20
BRANCH  19  26
ATOM     26  C   UNL     1     -27.147   5.937  -2.519  0.00  0.00    +0.000 C 
BRANCH  26  27
ATOM     27  C   UNL     1     -26.072   5.145  -1.843  0.00  0.00    +0.000 C 
ATOM     28  O   UNL     1     -25.425   5.640  -0.872  0.00  0.00    +0.000 OA
BRANCH  27  29
ATOM     29  O   UNL     1     -25.780   3.828  -2.198  0.00  0.00    +0.000 OA
BRANCH  29  31
ATOM     30  C   UNL     1     -25.045   2.267  -1.141  0.00  0.00    +0.000 C 
ATOM     31  C   UNL     1     -25.793   2.773  -1.239  0.00  0.00    +0.000 C 
ATOM     32  C   UNL     1     -27.180   2.609  -0.681  0.00  0.00    +0.000 C 
ENDBRANCH  29  31
ENDBRANCH  27  29
ENDBRANCH  26  27
ENDBRANCH  19  26
ENDBRANCH  18  19
ENDBRANCH   1  18
TORSDOF 11
ENDMDL
MODEL 10
REMARK VINA RESULT:      -6.2     14.069     17.045
REMARK  Name = 
REMARK  11 active torsions:
REMARK  status: ('A' for Active; 'I' for Inactive)
REMARK    1  A    between atoms: C_2  and  O_4
REMARK    2  A    between atoms: O_4  and  C_5
REMARK    3  A    between atoms: C_5  and  C_7
REMARK    4  A    between atoms: C_7  and  C_8
REMARK    5  A    between atoms: C_8  and  O_9
REMARK    6  A    between atoms: C_8  and  C_27
REMARK    7  A    between atoms: O_9  and  C_10
REMARK    8  A    between atoms: C_16  and  C_17
REMARK    9  A    between atoms: C_18  and  C_19
REMARK   10  A    between atoms: C_27  and  O_29
REMARK   11  A    between atoms: O_29  and  C_30
REMARK                            x       y       z     vdW  Elec       q    Type
REMARK                         _______ _______ _______ _____ _____    ______ ____
ROOT
ATOM      1  C   UNL     1     -23.078   7.206  -2.174  0.00  0.00    +0.000 A 
ATOM      2  C   UNL     1     -22.336   6.251  -1.489  0.00  0.00    +0.000 A 
ATOM      3  C   UNL     1     -21.495   6.601  -0.438  0.00  0.00    +0.000 A 
ATOM      4  O   UNL     1     -20.259   5.988  -0.260  0.00  0.00    +0.000 OA
ATOM      5  C   UNL     1     -21.765   7.834   0.146  0.00  0.00    +0.000 A 
ATOM      6  C   UNL     1     -22.466   8.807  -0.555  0.00  0.00    +0.000 A 
ATOM      7  C   UNL     1     -22.999   8.547  -1.815  0.00  0.00    +0.000 A 
ENDROOT
BRANCH   7   8
ATOM      8  C   UNL     1     -22.960   9.500  -2.909  0.00  0.00    +0.000 C 
ATOM      9  C   UNL     1     -22.185  10.456  -3.158  0.00  0.00    +0.000 C 
BRANCH   9  10
ATOM     10  C   UNL     1     -22.115  11.854  -2.959  0.00  0.00    +0.000 A 
ATOM     11  C   UNL     1     -21.803  12.823  -3.903  0.00  0.00    +0.000 A 
ATOM     12  C   UNL     1     -21.831  14.171  -3.566  0.00  0.00    +0.000 A 
ATOM     13  O   UNL     1     -21.608  15.136  -4.527  0.00  0.00    +0.000 OA
ATOM     14  C   UNL     1     -21.839  14.563  -2.241  0.00  0.00    +0.000 A 
ATOM     15  C   UNL     1     -22.004  13.601  -1.261  0.00  0.00    +0.000 A 
ATOM     16  O   UNL     1     -21.945  13.937   0.093  0.00  0.00    +0.000 OA
ATOM     17  C   UNL     1     -22.265  12.326  -1.660  0.00  0.00    +0.000 A 
ENDBRANCH   9  10
ENDBRANCH   7   8
BRANCH   1  18
ATOM     18  O   UNL     1     -24.195   6.875  -2.950  0.00  0.00    +0.000 OA
BRANCH  18  19
ATOM     19  C   UNL     1     -25.444   7.167  -2.085  0.00  0.00    +0.000 C 
BRANCH  19  20
ATOM     20  C   UNL     1     -26.250   7.827  -3.328  0.00  0.00    +0.000 C 
ATOM     21  O   UNL     1     -27.413   7.327  -3.481  0.00  0.00    +0.000 OA
BRANCH  20  22
ATOM     22  O   UNL     1     -25.441   7.690  -4.467  0.00  0.00    +0.000 OA
BRANCH  22  23
ATOM     23  C   UNL     1     -25.458   8.618  -5.531  0.00  0.00    +0.000 C 
ATOM     24  C   UNL     1     -25.851   9.987  -5.035  0.00  0.00    +0.000 C 
ATOM     25  C   UNL     1     -24.174   8.621  -6.313  0.00  0.00    +0.000 C 
ENDBRANCH  22  23
ENDBRANCH  20  22
ENDBRANCH  19  20
BRANCH  19  26
ATOM     26  C   UNL     1     -26.082   5.677  -2.393  0.00  0.00    +0.000 C 
BRANCH  26  27
ATOM     27  C   UNL     1     -25.463   4.834  -1.322  0.00  0.00    +0.000 C 
ATOM     28  O   UNL     1     -25.419   5.248  -0.126  0.00  0.00    +0.000 OA
BRANCH  27  29
ATOM     29  O   UNL     1     -24.973   3.552  -1.571  0.00  0.00    +0.000 OA
BRANCH  29  31
ATOM     30  C   UNL     1     -24.857   1.841  -0.496  0.00  0.00    +0.000 C 
ATOM     31  C   UNL     1     -25.460   2.413  -0.863  0.00  0.00    +0.000 C 
ATOM     32  C   UNL     1     -26.950   2.310  -1.029  0.00  0.00    +0.000 C 
ENDBRANCH  29  31
ENDBRANCH  27  29
ENDBRANCH  26  27
ENDBRANCH  19  26
ENDBRANCH  18  19
ENDBRANCH   1  18
TORSDOF 11
ENDMDL
