MODEL 1
REMARK VINA RESULT:      -7.6      0.000      0.000
REMARK  Name = 
REMARK  10 active torsions:
REMARK  status: ('A' for Active; 'I' for Inactive)
REMARK    1  A    between atoms: C_2  and  O_3
REMARK    2  A    between atoms: O_3  and  C_4
REMARK    3  A    between atoms: C_4  and  C_6
REMARK    4  A    between atoms: C_6  and  C_7
REMARK    5  A    between atoms: C_7  and  O_9
REMARK    6  A    between atoms: O_9  and  C_10
REMARK    7  A    between atoms: C_13  and  O_14
REMARK    8  A    between atoms: O_14  and  C_15
REMARK    9  A    between atoms: C_21  and  C_22
REMARK   10  A    between atoms: C_23  and  C_24
REMARK                            x       y       z     vdW  Elec       q    Type
REMARK                         _______ _______ _______ _____ _____    ______ ____
ROOT
ATOM      1  C   UNL     1     -18.613  -6.374   7.760  0.00  0.00    +0.000 A 
ATOM      2  C   UNL     1     -19.001  -7.168   8.833  0.00  0.00    +0.000 A 
ATOM      3  C   UNL     1     -19.600  -6.591   9.947  0.00  0.00    +0.000 A 
ATOM      4  O   UNL     1     -19.287  -7.003  11.246  0.00  0.00    +0.000 OA
ATOM      5  C   UNL     1     -20.172  -5.340   9.754  0.00  0.00    +0.000 A 
ATOM      6  C   UNL     1     -19.855  -4.569   8.643  0.00  0.00    +0.000 A 
ATOM      7  C   UNL     1     -18.928  -5.024   7.712  0.00  0.00    +0.000 A 
ENDROOT
BRANCH   7   8
ATOM      8  C   UNL     1     -17.928  -4.126   7.117  0.00  0.00    +0.000 C 
ATOM      9  C   UNL     1     -17.601  -2.961   7.626  0.00  0.00    +0.000 C 
BRANCH   9  10
ATOM     10  C   UNL     1     -17.722  -1.688   6.900  0.00  0.00    +0.000 A 
ATOM     11  C   UNL     1     -18.435  -0.634   7.458  0.00  0.00    +0.000 A 
ATOM     12  C   UNL     1     -17.974   0.668   7.318  0.00  0.00    +0.000 A 
ATOM     13  O   UNL     1     -18.521   1.715   8.065  0.00  0.00    +0.000 OA
ATOM     14  C   UNL     1     -16.781   0.960   6.670  0.00  0.00    +0.000 A 
ATOM     15  C   UNL     1     -16.185  -0.053   5.958  0.00  0.00    +0.000 A 
ATOM     16  O   UNL     1     -15.078   0.217   5.146  0.00  0.00    +0.000 OA
ATOM     17  C   UNL     1     -16.714  -1.333   6.013  0.00  0.00    +0.000 A 
ENDBRANCH   9  10
ENDBRANCH   7   8
BRANCH   1  18
ATOM     18  O   UNL     1     -18.167  -6.929   6.555  0.00  0.00    +0.000 OA
BRANCH  18  21
ATOM     19  C   UNL     1     -19.206  -9.485   4.672  0.00  0.00    +0.000 C 
ATOM     20  C   UNL     1     -18.677  -9.304   6.091  0.00  0.00    +0.000 C 
ATOM     21  C   UNL     1     -19.040  -7.835   5.933  0.00  0.00    +0.000 C 
ATOM     22  C   UNL     1     -18.809  -8.032   4.438  0.00  0.00    +0.000 C 
BRANCH  19  23
ATOM     23  C   UNL     1     -18.461 -10.453   3.849  0.00  0.00    +0.000 C 
ATOM     24  O   UNL     1     -18.812 -11.669   3.869  0.00  0.00    +0.000 OA
BRANCH  23  25
ATOM     25  O   UNL     1     -17.878  -9.977   2.680  0.00  0.00    +0.000 OA
BRANCH  25  27
ATOM     26  C   UNL     1     -15.705  -9.214   3.251  0.00  0.00    +0.000 C 
ATOM     27  C   UNL     1     -16.515 -10.185   2.419  0.00  0.00    +0.000 C 
ENDBRANCH  25  27
ENDBRANCH  23  25
ENDBRANCH  19  23
BRANCH  19  28
ATOM     28  C   UNL     1     -20.673  -9.605   4.619  0.00  0.00    +0.000 C 
ATOM     29  O   UNL     1     -21.244  -9.535   3.496  0.00  0.00    +0.000 OA
BRANCH  28  30
ATOM     30  O   UNL     1     -21.305 -10.395   5.577  0.00  0.00    +0.000 OA
BRANCH  30  31
ATOM     31  C   UNL     1     -22.556 -10.053   6.118  0.00  0.00    +0.000 C 
ATOM     32  C   UNL     1     -22.436  -8.707   6.815  0.00  0.00    +0.000 C 
ENDBRANCH  30  31
ENDBRANCH  28  30
ENDBRANCH  19  28
ENDBRANCH  18  21
ENDBRANCH   1  18
TORSDOF 10
ENDMDL
MODEL 2
REMARK VINA RESULT:      -6.6     17.630     20.750
REMARK  Name = 
REMARK  10 active torsions:
REMARK  status: ('A' for Active; 'I' for Inactive)
REMARK    1  A    between atoms: C_2  and  O_3
REMARK    2  A    between atoms: O_3  and  C_4
REMARK    3  A    between atoms: C_4  and  C_6
REMARK    4  A    between atoms: C_6  and  C_7
REMARK    5  A    between atoms: C_7  and  O_9
REMARK    6  A    between atoms: O_9  and  C_10
REMARK    7  A    between atoms: C_13  and  O_14
REMARK    8  A    between atoms: O_14  and  C_15
REMARK    9  A    between atoms: C_21  and  C_22
REMARK   10  A    between atoms: C_23  and  C_24
REMARK                            x       y       z     vdW  Elec       q    Type
REMARK                         _______ _______ _______ _____ _____    ______ ____
ROOT
ATOM      1  C   UNL     1     -34.710  -7.790  -4.929  0.00  0.00    +0.000 A 
ATOM      2  C   UNL     1     -35.420  -8.815  -5.543  0.00  0.00    +0.000 A 
ATOM      3  C   UNL     1     -35.940  -9.856  -4.782  0.00  0.00    +0.000 A 
ATOM      4  O   UNL     1     -35.897 -11.182  -5.224  0.00  0.00    +0.000 OA
ATOM      5  C   UNL     1     -36.103  -9.601  -3.427  0.00  0.00    +0.000 A 
ATOM      6  C   UNL     1     -35.462  -8.531  -2.816  0.00  0.00    +0.000 A 
ATOM      7  C   UNL     1     -34.614  -7.707  -3.547  0.00  0.00    +0.000 A 
ENDROOT
BRANCH   7   8
ATOM      8  C   UNL     1     -33.341  -7.224  -2.994  0.00  0.00    +0.000 C 
ATOM      9  C   UNL     1     -33.207  -6.078  -2.370  0.00  0.00    +0.000 C 
BRANCH   9  10
ATOM     10  C   UNL     1     -32.281  -5.018  -2.797  0.00  0.00    +0.000 A 
ATOM     11  C   UNL     1     -30.963  -5.329  -3.107  0.00  0.00    +0.000 A 
ATOM     12  C   UNL     1     -30.334  -4.701  -4.173  0.00  0.00    +0.000 A 
ATOM     13  O   UNL     1     -29.108  -5.160  -4.664  0.00  0.00    +0.000 OA
ATOM     14  C   UNL     1     -30.996  -3.792  -4.987  0.00  0.00    +0.000 A 
ATOM     15  C   UNL     1     -32.225  -3.344  -4.563  0.00  0.00    +0.000 A 
ATOM     16  O   UNL     1     -32.867  -2.305  -5.245  0.00  0.00    +0.000 OA
ATOM     17  C   UNL     1     -32.803  -3.898  -3.432  0.00  0.00    +0.000 A 
ENDBRANCH   9  10
ENDBRANCH   7   8
BRANCH   1  18
ATOM     18  O   UNL     1     -34.320  -6.642  -5.627  0.00  0.00    +0.000 OA
BRANCH  18  21
ATOM     19  C   UNL     1     -36.214  -3.951  -6.201  0.00  0.00    +0.000 C 
ATOM     20  C   UNL     1     -34.925  -4.534  -6.770  0.00  0.00    +0.000 C 
ATOM     21  C   UNL     1     -35.358  -5.849  -6.139  0.00  0.00    +0.000 C 
ATOM     22  C   UNL     1     -36.098  -5.006  -5.106  0.00  0.00    +0.000 C 
BRANCH  19  23
ATOM     23  C   UNL     1     -36.108  -2.565  -5.715  0.00  0.00    +0.000 C 
ATOM     24  O   UNL     1     -36.339  -1.615  -6.519  0.00  0.00    +0.000 OA
BRANCH  23  25
ATOM     25  O   UNL     1     -36.380  -2.340  -4.370  0.00  0.00    +0.000 OA
BRANCH  25  27
ATOM     26  C   UNL     1     -38.120  -2.765  -2.813  0.00  0.00    +0.000 C 
ATOM     27  C   UNL     1     -37.645  -1.893  -3.955  0.00  0.00    +0.000 C 
ENDBRANCH  25  27
ENDBRANCH  23  25
ENDBRANCH  19  23
BRANCH  19  28
ATOM     28  C   UNL     1     -37.391  -4.240  -7.036  0.00  0.00    +0.000 C 
ATOM     29  O   UNL     1     -38.539  -4.092  -6.533  0.00  0.00    +0.000 OA
BRANCH  28  30
ATOM     30  O   UNL     1     -37.295  -4.025  -8.409  0.00  0.00    +0.000 OA
BRANCH  30  31
ATOM     31  C   UNL     1     -38.354  -3.479  -9.154  0.00  0.00    +0.000 C 
ATOM     32  C   UNL     1     -37.891  -2.172  -9.778  0.00  0.00    +0.000 C 
ENDBRANCH  30  31
ENDBRANCH  28  30
ENDBRANCH  19  28
ENDBRANCH  18  21
ENDBRANCH   1  18
TORSDOF 10
ENDMDL
MODEL 3
REMARK VINA RESULT:      -6.6     17.829     20.988
REMARK  Name = 
REMARK  10 active torsions:
REMARK  status: ('A' for Active; 'I' for Inactive)
REMARK    1  A    between atoms: C_2  and  O_3
REMARK    2  A    between atoms: O_3  and  C_4
REMARK    3  A    between atoms: C_4  and  C_6
REMARK    4  A    between atoms: C_6  and  C_7
REMARK    5  A    between atoms: C_7  and  O_9
REMARK    6  A    between atoms: O_9  and  C_10
REMARK    7  A    between atoms: C_13  and  O_14
REMARK    8  A    between atoms: O_14  and  C_15
REMARK    9  A    between atoms: C_21  and  C_22
REMARK   10  A    between atoms: C_23  and  C_24
REMARK                            x       y       z     vdW  Elec       q    Type
REMARK                         _______ _______ _______ _____ _____    ______ ____
ROOT
ATOM      1  C   UNL     1     -24.732   9.717  -6.067  0.00  0.00    +0.000 A 
ATOM      2  C   UNL     1     -25.295  10.976  -6.234  0.00  0.00    +0.000 A 
ATOM      3  C   UNL     1     -25.038  11.982  -5.309  0.00  0.00    +0.000 A 
ATOM      4  O   UNL     1     -26.038  12.862  -4.883  0.00  0.00    +0.000 OA
ATOM      5  C   UNL     1     -23.904  11.817  -4.524  0.00  0.00    +0.000 A 
ATOM      6  C   UNL     1     -23.283  10.580  -4.413  0.00  0.00    +0.000 A 
ATOM      7  C   UNL     1     -23.806   9.468  -5.064  0.00  0.00    +0.000 A 
ENDROOT
BRANCH   7   8
ATOM      8  C   UNL     1     -23.859   8.149  -4.417  0.00  0.00    +0.000 C 
ATOM      9  C   UNL     1     -24.679   7.853  -3.436  0.00  0.00    +0.000 C 
BRANCH   9  10
ATOM     10  C   UNL     1     -24.237   7.380  -2.116  0.00  0.00    +0.000 A 
ATOM     11  C   UNL     1     -24.549   6.092  -1.698  0.00  0.00    +0.000 A 
ATOM     12  C   UNL     1     -23.617   5.348  -0.986  0.00  0.00    +0.000 A 
ATOM     13  O   UNL     1     -23.798   3.979  -0.767  0.00  0.00    +0.000 OA
ATOM     14  C   UNL     1     -22.345   5.830  -0.711  0.00  0.00    +0.000 A 
ATOM     15  C   UNL     1     -22.110   7.164  -0.952  0.00  0.00    +0.000 A 
ATOM     16  O   UNL     1     -20.909   7.750  -0.539  0.00  0.00    +0.000 OA
ATOM     17  C   UNL     1     -23.087   7.932  -1.565  0.00  0.00    +0.000 A 
ENDBRANCH   9  10
ENDBRANCH   7   8
BRANCH   1  18
ATOM     18  O   UNL     1     -24.823   8.731  -7.055  0.00  0.00    +0.000 OA
BRANCH  18  21
ATOM     19  C   UNL     1     -27.004   7.918  -9.452  0.00  0.00    +0.000 C 
ATOM     20  C   UNL     1     -26.569   7.334  -8.112  0.00  0.00    +0.000 C 
ATOM     21  C   UNL     1     -26.011   8.715  -7.803  0.00  0.00    +0.000 C 
ATOM     22  C   UNL     1     -25.829   8.878  -9.309  0.00  0.00    +0.000 C 
BRANCH  19  23
ATOM     23  C   UNL     1     -26.893   6.997 -10.596  0.00  0.00    +0.000 C 
ATOM     24  O   UNL     1     -25.744   6.717 -11.046  0.00  0.00    +0.000 OA
BRANCH  23  25
ATOM     25  O   UNL     1     -27.884   6.030 -10.732  0.00  0.00    +0.000 OA
BRANCH  25  27
ATOM     26  C   UNL     1     -29.884   6.410 -11.950  0.00  0.00    +0.000 C 
ATOM     27  C   UNL     1     -28.500   5.798 -11.972  0.00  0.00    +0.000 C 
ENDBRANCH  25  27
ENDBRANCH  23  25
ENDBRANCH  19  23
BRANCH  19  28
ATOM     28  C   UNL     1     -28.265   8.673  -9.366  0.00  0.00    +0.000 C 
ATOM     29  O   UNL     1     -28.644   9.331 -10.374  0.00  0.00    +0.000 OA
BRANCH  28  30
ATOM     30  O   UNL     1     -29.276   8.176  -8.545  0.00  0.00    +0.000 OA
BRANCH  30  31
ATOM     31  C   UNL     1     -30.637   8.376  -8.836  0.00  0.00    +0.000 C 
ATOM     32  C   UNL     1     -31.382   7.071  -8.605  0.00  0.00    +0.000 C 
ENDBRANCH  30  31
ENDBRANCH  28  30
ENDBRANCH  19  28
ENDBRANCH  18  21
ENDBRANCH   1  18
TORSDOF 10
ENDMDL
MODEL 4
REMARK VINA RESULT:      -6.6     18.157     25.222
REMARK  Name = 
REMARK  10 active torsions:
REMARK  status: ('A' for Active; 'I' for Inactive)
REMARK    1  A    between atoms: C_2  and  O_3
REMARK    2  A    between atoms: O_3  and  C_4
REMARK    3  A    between atoms: C_4  and  C_6
REMARK    4  A    between atoms: C_6  and  C_7
REMARK    5  A    between atoms: C_7  and  O_9
REMARK    6  A    between atoms: O_9  and  C_10
REMARK    7  A    between atoms: C_13  and  O_14
REMARK    8  A    between atoms: O_14  and  C_15
REMARK    9  A    between atoms: C_21  and  C_22
REMARK   10  A    between atoms: C_23  and  C_24
REMARK                            x       y       z     vdW  Elec       q    Type
REMARK                         _______ _______ _______ _____ _____    ______ ____
ROOT
ATOM      1  C   UNL     1     -13.187  17.450   0.285  0.00  0.00    +0.000 A 
ATOM      2  C   UNL     1     -13.029  18.816   0.487  0.00  0.00    +0.000 A 
ATOM      3  C   UNL     1     -12.769  19.306   1.761  0.00  0.00    +0.000 A 
ATOM      4  O   UNL     1     -13.370  20.477   2.234  0.00  0.00    +0.000 OA
ATOM      5  C   UNL     1     -12.252  18.396   2.674  0.00  0.00    +0.000 A 
ATOM      6  C   UNL     1     -12.331  17.028   2.446  0.00  0.00    +0.000 A 
ATOM      7  C   UNL     1     -12.962  16.540   1.308  0.00  0.00    +0.000 A 
ENDROOT
BRANCH   7   8
ATOM      8  C   UNL     1     -13.838  15.360   1.357  0.00  0.00    +0.000 C 
ATOM      9  C   UNL     1     -13.776  14.447   2.297  0.00  0.00    +0.000 C 
BRANCH   9  10
ATOM     10  C   UNL     1     -13.532  13.020   2.036  0.00  0.00    +0.000 A 
ATOM     11  C   UNL     1     -12.337  12.434   2.437  0.00  0.00    +0.000 A 
ATOM     12  C   UNL     1     -12.335  11.146   2.953  0.00  0.00    +0.000 A 
ATOM     13  O   UNL     1     -11.205  10.622   3.589  0.00  0.00    +0.000 OA
ATOM     14  C   UNL     1     -13.506  10.422   3.133  0.00  0.00    +0.000 A 
ATOM     15  C   UNL     1     -14.651  10.923   2.560  0.00  0.00    +0.000 A 
ATOM     16  O   UNL     1     -15.825  10.163   2.558  0.00  0.00    +0.000 OA
ATOM     17  C   UNL     1     -14.623  12.166   1.947  0.00  0.00    +0.000 A 
ENDBRANCH   9  10
ENDBRANCH   7   8
BRANCH   1  18
ATOM     18  O   UNL     1     -13.278  16.899  -0.998  0.00  0.00    +0.000 OA
BRANCH  18  21
ATOM     19  C   UNL     1     -13.713  18.118  -4.078  0.00  0.00    +0.000 C 
ATOM     20  C   UNL     1     -14.459  17.159  -3.156  0.00  0.00    +0.000 C 
ATOM     21  C   UNL     1     -13.655  17.781  -2.022  0.00  0.00    +0.000 C 
ATOM     22  C   UNL     1     -12.577  18.062  -3.063  0.00  0.00    +0.000 C 
BRANCH  19  23
ATOM     23  C   UNL     1     -13.369  17.568  -5.399  0.00  0.00    +0.000 C 
ATOM     24  O   UNL     1     -14.229  16.873  -6.015  0.00  0.00    +0.000 OA
BRANCH  23  25
ATOM     25  O   UNL     1     -12.461  18.286  -6.170  0.00  0.00    +0.000 OA
BRANCH  25  27
ATOM     26  C   UNL     1     -10.763  18.031  -7.807  0.00  0.00    +0.000 C 
ATOM     27  C   UNL     1     -12.247  17.964  -7.519  0.00  0.00    +0.000 C 
ENDBRANCH  25  27
ENDBRANCH  23  25
ENDBRANCH  19  23
BRANCH  19  28
ATOM     28  C   UNL     1     -14.294  19.471  -4.086  0.00  0.00    +0.000 C 
ATOM     29  O   UNL     1     -13.548  20.449  -3.805  0.00  0.00    +0.000 OA
BRANCH  28  30
ATOM     30  O   UNL     1     -15.339  19.735  -4.969  0.00  0.00    +0.000 OA
BRANCH  30  31
ATOM     31  C   UNL     1     -16.677  19.800  -4.542  0.00  0.00    +0.000 C 
ATOM     32  C   UNL     1     -17.380  18.511  -4.937  0.00  0.00    +0.000 C 
ENDBRANCH  30  31
ENDBRANCH  28  30
ENDBRANCH  19  28
ENDBRANCH  18  21
ENDBRANCH   1  18
TORSDOF 10
ENDMDL
MODEL 5
REMARK VINA RESULT:      -6.4      1.810      2.627
REMARK  Name = 
REMARK  10 active torsions:
REMARK  status: ('A' for Active; 'I' for Inactive)
REMARK    1  A    between atoms: C_2  and  O_3
REMARK    2  A    between atoms: O_3  and  C_4
REMARK    3  A    between atoms: C_4  and  C_6
REMARK    4  A    between atoms: C_6  and  C_7
REMARK    5  A    between atoms: C_7  and  O_9
REMARK    6  A    between atoms: O_9  and  C_10
REMARK    7  A    between atoms: C_13  and  O_14
REMARK    8  A    between atoms: O_14  and  C_15
REMARK    9  A    between atoms: C_21  and  C_22
REMARK   10  A    between atoms: C_23  and  C_24
REMARK                            x       y       z     vdW  Elec       q    Type
REMARK                         _______ _______ _______ _____ _____    ______ ____
ROOT
ATOM      1  C   UNL     1     -18.786  -6.195   8.161  0.00  0.00    +0.000 A 
ATOM      2  C   UNL     1     -19.000  -7.127   9.169  0.00  0.00    +0.000 A 
ATOM      3  C   UNL     1     -19.450  -6.712  10.417  0.00  0.00    +0.000 A 
ATOM      4  O   UNL     1     -18.948  -7.265  11.600  0.00  0.00    +0.000 OA
ATOM      5  C   UNL     1     -20.072  -5.471  10.462  0.00  0.00    +0.000 A 
ATOM      6  C   UNL     1     -19.931  -4.560   9.424  0.00  0.00    +0.000 A 
ATOM      7  C   UNL     1     -19.135  -4.862   8.326  0.00  0.00    +0.000 A 
ENDROOT
BRANCH   7   8
ATOM      8  C   UNL     1     -18.249  -3.860   7.716  0.00  0.00    +0.000 C 
ATOM      9  C   UNL     1     -18.131  -2.629   8.156  0.00  0.00    +0.000 C 
BRANCH   9  10
ATOM     10  C   UNL     1     -18.401  -1.438   7.336  0.00  0.00    +0.000 A 
ATOM     11  C   UNL     1     -19.344  -1.495   6.317  0.00  0.00    +0.000 A 
ATOM     12  C   UNL     1     -20.183  -0.412   6.087  0.00  0.00    +0.000 A 
ATOM     13  O   UNL     1     -21.295  -0.523   5.246  0.00  0.00    +0.000 OA
ATOM     14  C   UNL     1     -20.148   0.728   6.878  0.00  0.00    +0.000 A 
ATOM     15  C   UNL     1     -19.094   0.858   7.751  0.00  0.00    +0.000 A 
ATOM     16  O   UNL     1     -18.907   2.054   8.452  0.00  0.00    +0.000 OA
ATOM     17  C   UNL     1     -18.193  -0.185   7.898  0.00  0.00    +0.000 A 
ENDBRANCH   9  10
ENDBRANCH   7   8
BRANCH   1  18
ATOM     18  O   UNL     1     -18.501  -6.581   6.847  0.00  0.00    +0.000 OA
BRANCH  18  21
ATOM     19  C   UNL     1     -18.544  -9.432   5.105  0.00  0.00    +0.000 C 
ATOM     20  C   UNL     1     -17.478  -8.532   5.721  0.00  0.00    +0.000 C 
ATOM     21  C   UNL     1     -18.600  -7.954   6.573  0.00  0.00    +0.000 C 
ATOM     22  C   UNL     1     -19.536  -8.319   5.425  0.00  0.00    +0.000 C 
BRANCH  19  23
ATOM     23  C   UNL     1     -18.378  -9.694   3.665  0.00  0.00    +0.000 C 
ATOM     24  O   UNL     1     -18.221  -8.715   2.879  0.00  0.00    +0.000 OA
BRANCH  23  25
ATOM     25  O   UNL     1     -17.792 -10.902   3.303  0.00  0.00    +0.000 OA
BRANCH  25  27
ATOM     26  C   UNL     1     -16.093 -11.761   1.887  0.00  0.00    +0.000 C 
ATOM     27  C   UNL     1     -16.399 -11.014   3.167  0.00  0.00    +0.000 C 
ENDBRANCH  25  27
ENDBRANCH  23  25
ENDBRANCH  19  23
BRANCH  19  28
ATOM     28  C   UNL     1     -18.848 -10.610   5.933  0.00  0.00    +0.000 C 
ATOM     29  O   UNL     1     -19.852 -11.315   5.634  0.00  0.00    +0.000 OA
BRANCH  28  30
ATOM     30  O   UNL     1     -17.788 -11.283   6.536  0.00  0.00    +0.000 OA
BRANCH  30  31
ATOM     31  C   UNL     1     -17.769 -11.562   7.914  0.00  0.00    +0.000 C 
ATOM     32  C   UNL     1     -16.688 -10.718   8.570  0.00  0.00    +0.000 C 
ENDBRANCH  30  31
ENDBRANCH  28  30
ENDBRANCH  19  28
ENDBRANCH  18  21
ENDBRANCH   1  18
TORSDOF 10
ENDMDL
MODEL 6
REMARK VINA RESULT:      -6.3      1.440      3.657
REMARK  Name = 
REMARK  10 active torsions:
REMARK  status: ('A' for Active; 'I' for Inactive)
REMARK    1  A    between atoms: C_2  and  O_3
REMARK    2  A    between atoms: O_3  and  C_4
REMARK    3  A    between atoms: C_4  and  C_6
REMARK    4  A    between atoms: C_6  and  C_7
REMARK    5  A    between atoms: C_7  and  O_9
REMARK    6  A    between atoms: O_9  and  C_10
REMARK    7  A    between atoms: C_13  and  O_14
REMARK    8  A    between atoms: O_14  and  C_15
REMARK    9  A    between atoms: C_21  and  C_22
REMARK   10  A    between atoms: C_23  and  C_24
REMARK                            x       y       z     vdW  Elec       q    Type
REMARK                         _______ _______ _______ _____ _____    ______ ____
ROOT
ATOM      1  C   UNL     1     -18.741  -6.607   7.950  0.00  0.00    +0.000 A 
ATOM      2  C   UNL     1     -18.903  -7.755   8.717  0.00  0.00    +0.000 A 
ATOM      3  C   UNL     1     -19.739  -7.739   9.827  0.00  0.00    +0.000 A 
ATOM      4  O   UNL     1     -19.394  -8.387  11.017  0.00  0.00    +0.000 OA
ATOM      5  C   UNL     1     -20.694  -6.731   9.859  0.00  0.00    +0.000 A 
ATOM      6  C   UNL     1     -20.587  -5.615   9.039  0.00  0.00    +0.000 A 
ATOM      7  C   UNL     1     -19.499  -5.470   8.187  0.00  0.00    +0.000 A 
ENDROOT
BRANCH   7   8
ATOM      8  C   UNL     1     -18.832  -4.173   8.001  0.00  0.00    +0.000 C 
ATOM      9  C   UNL     1     -19.008  -3.144   8.796  0.00  0.00    +0.000 C 
BRANCH   9  10
ATOM     10  C   UNL     1     -19.501  -1.834   8.341  0.00  0.00    +0.000 A 
ATOM     11  C   UNL     1     -18.615  -0.775   8.184  0.00  0.00    +0.000 A 
ATOM     12  C   UNL     1     -18.763   0.100   7.116  0.00  0.00    +0.000 A 
ATOM     13  O   UNL     1     -17.760   1.018   6.788  0.00  0.00    +0.000 OA
ATOM     14  C   UNL     1     -19.749  -0.071   6.155  0.00  0.00    +0.000 A 
ATOM     15  C   UNL     1     -20.733  -0.995   6.417  0.00  0.00    +0.000 A 
ATOM     16  O   UNL     1     -21.844  -1.095   5.574  0.00  0.00    +0.000 OA
ATOM     17  C   UNL     1     -20.638  -1.794   7.546  0.00  0.00    +0.000 A 
ENDBRANCH   9  10
ENDBRANCH   7   8
BRANCH   1  18
ATOM     18  O   UNL     1     -18.050  -6.624   6.733  0.00  0.00    +0.000 OA
BRANCH  18  21
ATOM     19  C   UNL     1     -19.507  -9.066   4.980  0.00  0.00    +0.000 C 
ATOM     20  C   UNL     1     -19.030  -7.644   4.704  0.00  0.00    +0.000 C 
ATOM     21  C   UNL     1     -18.186  -7.789   5.962  0.00  0.00    +0.000 C 
ATOM     22  C   UNL     1     -19.248  -8.768   6.452  0.00  0.00    +0.000 C 
BRANCH  19  23
ATOM     23  C   UNL     1     -20.921  -9.320   4.657  0.00  0.00    +0.000 C 
ATOM     24  O   UNL     1     -21.232  -9.618   3.466  0.00  0.00    +0.000 OA
BRANCH  23  25
ATOM     25  O   UNL     1     -21.723  -9.832   5.671  0.00  0.00    +0.000 OA
BRANCH  25  27
ATOM     26  C   UNL     1     -22.782  -8.641   7.428  0.00  0.00    +0.000 C 
ATOM     27  C   UNL     1     -22.924  -9.200   6.029  0.00  0.00    +0.000 C 
ENDBRANCH  25  27
ENDBRANCH  23  25
ENDBRANCH  19  23
BRANCH  19  28
ATOM     28  C   UNL     1     -18.557 -10.089   4.514  0.00  0.00    +0.000 C 
ATOM     29  O   UNL     1     -18.570 -11.222   5.069  0.00  0.00    +0.000 OA
BRANCH  28  30
ATOM     30  O   UNL     1     -18.171 -10.070   3.175  0.00  0.00    +0.000 OA
BRANCH  30  31
ATOM     31  C   UNL     1     -16.848 -10.329   2.777  0.00  0.00    +0.000 C 
ATOM     32  C   UNL     1     -15.968  -9.170   3.217  0.00  0.00    +0.000 C 
ENDBRANCH  30  31
ENDBRANCH  28  30
ENDBRANCH  19  28
ENDBRANCH  18  21
ENDBRANCH   1  18
TORSDOF 10
ENDMDL
MODEL 7
REMARK VINA RESULT:      -6.3     34.512     38.838
REMARK  Name = 
REMARK  10 active torsions:
REMARK  status: ('A' for Active; 'I' for Inactive)
REMARK    1  A    between atoms: C_2  and  O_3
REMARK    2  A    between atoms: O_3  and  C_4
REMARK    3  A    between atoms: C_4  and  C_6
REMARK    4  A    between atoms: C_6  and  C_7
REMARK    5  A    between atoms: C_7  and  O_9
REMARK    6  A    between atoms: O_9  and  C_10
REMARK    7  A    between atoms: C_13  and  O_14
REMARK    8  A    between atoms: O_14  and  C_15
REMARK    9  A    between atoms: C_21  and  C_22
REMARK   10  A    between atoms: C_23  and  C_24
REMARK                            x       y       z     vdW  Elec       q    Type
REMARK                         _______ _______ _______ _____ _____    ______ ____
ROOT
ATOM      1  C   UNL     1     -12.488  19.216 -24.201  0.00  0.00    +0.000 A 
ATOM      2  C   UNL     1     -12.866  19.360 -25.530  0.00  0.00    +0.000 A 
ATOM      3  C   UNL     1     -12.033  20.023 -26.424  0.00  0.00    +0.000 A 
ATOM      4  O   UNL     1     -12.538  20.900 -27.388  0.00  0.00    +0.000 OA
ATOM      5  C   UNL     1     -10.696  20.118 -26.058  0.00  0.00    +0.000 A 
ATOM      6  C   UNL     1     -10.293  19.896 -24.748  0.00  0.00    +0.000 A 
ATOM      7  C   UNL     1     -11.230  19.604 -23.763  0.00  0.00    +0.000 A 
ENDROOT
BRANCH   7   8
ATOM      8  C   UNL     1     -11.142  20.187 -22.417  0.00  0.00    +0.000 C 
ATOM      9  C   UNL     1     -10.440  19.662 -21.441  0.00  0.00    +0.000 C 
BRANCH   9  10
ATOM     10  C   UNL     1     -11.012  19.257 -20.148  0.00  0.00    +0.000 A 
ATOM     11  C   UNL     1     -11.440  20.222 -19.244  0.00  0.00    +0.000 A 
ATOM     12  C   UNL     1     -12.596  20.016 -18.503  0.00  0.00    +0.000 A 
ATOM     13  O   UNL     1     -13.186  21.054 -17.777  0.00  0.00    +0.000 OA
ATOM     14  C   UNL     1     -13.381  18.883 -18.665  0.00  0.00    +0.000 A 
ATOM     15  C   UNL     1     -12.857  17.852 -19.408  0.00  0.00    +0.000 A 
ATOM     16  O   UNL     1     -13.520  16.622 -19.469  0.00  0.00    +0.000 OA
ATOM     17  C   UNL     1     -11.646  18.024 -20.060  0.00  0.00    +0.000 A 
ENDBRANCH   9  10
ENDBRANCH   7   8
BRANCH   1  18
ATOM     18  O   UNL     1     -13.210  18.412 -23.311  0.00  0.00    +0.000 OA
BRANCH  18  21
ATOM     19  C   UNL     1     -16.157  19.160 -21.927  0.00  0.00    +0.000 C 
ATOM     20  C   UNL     1     -14.939  19.937 -22.415  0.00  0.00    +0.000 C 
ATOM     21  C   UNL     1     -14.582  18.687 -23.207  0.00  0.00    +0.000 C 
ATOM     22  C   UNL     1     -15.318  17.903 -22.125  0.00  0.00    +0.000 C 
BRANCH  19  23
ATOM     23  C   UNL     1     -16.538  19.417 -20.528  0.00  0.00    +0.000 C 
ATOM     24  O   UNL     1     -17.089  20.518 -20.236  0.00  0.00    +0.000 OA
BRANCH  23  25
ATOM     25  O   UNL     1     -16.865  18.314 -19.746  0.00  0.00    +0.000 OA
BRANCH  25  27
ATOM     26  C   UNL     1     -16.887  18.380 -17.375  0.00  0.00    +0.000 C 
ATOM     27  C   UNL     1     -17.717  18.443 -18.638  0.00  0.00    +0.000 C 
ENDBRANCH  25  27
ENDBRANCH  23  25
ENDBRANCH  19  23
BRANCH  19  28
ATOM     28  C   UNL     1     -17.265  19.166 -22.896  0.00  0.00    +0.000 C 
ATOM     29  O   UNL     1     -18.281  18.455 -22.655  0.00  0.00    +0.000 OA
BRANCH  28  30
ATOM     30  O   UNL     1     -17.494  20.327 -23.631  0.00  0.00    +0.000 OA
BRANCH  30  31
ATOM     31  C   UNL     1     -17.716  20.300 -25.018  0.00  0.00    +0.000 C 
ATOM     32  C   UNL     1     -16.449  20.754 -25.726  0.00  0.00    +0.000 C 
ENDBRANCH  30  31
ENDBRANCH  28  30
ENDBRANCH  19  28
ENDBRANCH  18  21
ENDBRANCH   1  18
TORSDOF 10
ENDMDL
MODEL 8
REMARK VINA RESULT:      -6.2      2.614      5.171
REMARK  Name = 
REMARK  10 active torsions:
REMARK  status: ('A' for Active; 'I' for Inactive)
REMARK    1  A    between atoms: C_2  and  O_3
REMARK    2  A    between atoms: O_3  and  C_4
REMARK    3  A    between atoms: C_4  and  C_6
REMARK    4  A    between atoms: C_6  and  C_7
REMARK    5  A    between atoms: C_7  and  O_9
REMARK    6  A    between atoms: O_9  and  C_10
REMARK    7  A    between atoms: C_13  and  O_14
REMARK    8  A    between atoms: O_14  and  C_15
REMARK    9  A    between atoms: C_21  and  C_22
REMARK   10  A    between atoms: C_23  and  C_24
REMARK                            x       y       z     vdW  Elec       q    Type
REMARK                         _______ _______ _______ _____ _____    ______ ____
ROOT
ATOM      1  C   UNL     1     -17.458  -9.698   8.698  0.00  0.00    +0.000 A 
ATOM      2  C   UNL     1     -16.579 -10.772   8.614  0.00  0.00    +0.000 A 
ATOM      3  C   UNL     1     -16.498 -11.690   9.654  0.00  0.00    +0.000 A 
ATOM      4  O   UNL     1     -15.273 -12.210  10.082  0.00  0.00    +0.000 OA
ATOM      5  C   UNL     1     -17.590 -11.740  10.512  0.00  0.00    +0.000 A 
ATOM      6  C   UNL     1     -18.521 -10.711  10.549  0.00  0.00    +0.000 A 
ATOM      7  C   UNL     1     -18.362  -9.588   9.745  0.00  0.00    +0.000 A 
ENDROOT
BRANCH   7   8
ATOM      8  C   UNL     1     -18.640  -8.234  10.247  0.00  0.00    +0.000 C 
ATOM      9  C   UNL     1     -19.749  -7.579   9.997  0.00  0.00    +0.000 C 
BRANCH   9  10
ATOM     10  C   UNL     1     -19.791  -6.267   9.333  0.00  0.00    +0.000 A 
ATOM     11  C   UNL     1     -19.848  -5.105  10.093  0.00  0.00    +0.000 A 
ATOM     12  C   UNL     1     -19.132  -3.982   9.700  0.00  0.00    +0.000 A 
ATOM     13  O   UNL     1     -18.969  -2.890  10.557  0.00  0.00    +0.000 OA
ATOM     14  C   UNL     1     -18.309  -3.988   8.582  0.00  0.00    +0.000 A 
ATOM     15  C   UNL     1     -18.406  -5.065   7.733  0.00  0.00    +0.000 A 
ATOM     16  O   UNL     1     -17.733  -5.055   6.507  0.00  0.00    +0.000 OA
ATOM     17  C   UNL     1     -19.210  -6.140   8.078  0.00  0.00    +0.000 A 
ENDBRANCH   9  10
ENDBRANCH   7   8
BRANCH   1  18
ATOM     18  O   UNL     1     -17.696  -8.852   7.610  0.00  0.00    +0.000 OA
BRANCH  18  21
ATOM     19  C   UNL     1     -19.394  -9.950   4.950  0.00  0.00    +0.000 C 
ATOM     20  C   UNL     1     -18.721  -8.647   5.368  0.00  0.00    +0.000 C 
ATOM     21  C   UNL     1     -17.956  -9.483   6.383  0.00  0.00    +0.000 C 
ATOM     22  C   UNL     1     -19.158 -10.422   6.380  0.00  0.00    +0.000 C 
BRANCH  19  23
ATOM     23  C   UNL     1     -20.815  -9.825   4.584  0.00  0.00    +0.000 C 
ATOM     24  O   UNL     1     -21.113  -9.431   3.419  0.00  0.00    +0.000 OA
BRANCH  23  25
ATOM     25  O   UNL     1     -21.711 -10.680   5.216  0.00  0.00    +0.000 OA
BRANCH  25  27
ATOM     26  C   UNL     1     -22.417  -8.819   6.508  0.00  0.00    +0.000 C 
ATOM     27  C   UNL     1     -22.797 -10.173   5.948  0.00  0.00    +0.000 C 
ENDBRANCH  25  27
ENDBRANCH  23  25
ENDBRANCH  19  23
BRANCH  19  28
ATOM     28  C   UNL     1     -18.570 -10.750   4.029  0.00  0.00    +0.000 C 
ATOM     29  O   UNL     1     -18.879 -11.960   3.840  0.00  0.00    +0.000 OA
BRANCH  28  30
ATOM     30  O   UNL     1     -17.959 -10.102   2.958  0.00  0.00    +0.000 OA
BRANCH  30  31
ATOM     31  C   UNL     1     -16.562  -9.989   2.854  0.00  0.00    +0.000 C 
ATOM     32  C   UNL     1     -16.012 -11.267   2.240  0.00  0.00    +0.000 C 
ENDBRANCH  30  31
ENDBRANCH  28  30
ENDBRANCH  19  28
ENDBRANCH  18  21
ENDBRANCH   1  18
TORSDOF 10
ENDMDL
MODEL 9
REMARK VINA RESULT:      -6.2     23.850     26.576
REMARK  Name = 
REMARK  10 active torsions:
REMARK  status: ('A' for Active; 'I' for Inactive)
REMARK    1  A    between atoms: C_2  and  O_3
REMARK    2  A    between atoms: O_3  and  C_4
REMARK    3  A    between atoms: C_4  and  C_6
REMARK    4  A    between atoms: C_6  and  C_7
REMARK    5  A    between atoms: C_7  and  O_9
REMARK    6  A    between atoms: O_9  and  C_10
REMARK    7  A    between atoms: C_13  and  O_14
REMARK    8  A    between atoms: O_14  and  C_15
REMARK    9  A    between atoms: C_21  and  C_22
REMARK   10  A    between atoms: C_23  and  C_24
REMARK                            x       y       z     vdW  Elec       q    Type
REMARK                         _______ _______ _______ _____ _____    ______ ____
ROOT
ATOM      1  C   UNL     1     -30.083   6.881 -11.407  0.00  0.00    +0.000 A 
ATOM      2  C   UNL     1     -28.779   6.401 -11.447  0.00  0.00    +0.000 A 
ATOM      3  C   UNL     1     -28.446   5.232 -10.772  0.00  0.00    +0.000 A 
ATOM      4  O   UNL     1     -27.244   5.106 -10.069  0.00  0.00    +0.000 OA
ATOM      5  C   UNL     1     -29.501   4.382 -10.464  0.00  0.00    +0.000 A 
ATOM      6  C   UNL     1     -30.815   4.828 -10.498  0.00  0.00    +0.000 A 
ATOM      7  C   UNL     1     -31.102   6.150 -10.813  0.00  0.00    +0.000 A 
ENDROOT
BRANCH   7   8
ATOM      8  C   UNL     1     -32.135   6.909 -10.092  0.00  0.00    +0.000 C 
ATOM      9  C   UNL     1     -33.391   6.964 -10.466  0.00  0.00    +0.000 C 
BRANCH   9  10
ATOM     10  C   UNL     1     -34.098   8.216 -10.777  0.00  0.00    +0.000 A 
ATOM     11  C   UNL     1     -33.470   9.438 -10.571  0.00  0.00    +0.000 A 
ATOM     12  C   UNL     1     -33.648  10.473 -11.480  0.00  0.00    +0.000 A 
ATOM     13  O   UNL     1     -32.848  11.618 -11.441  0.00  0.00    +0.000 OA
ATOM     14  C   UNL     1     -34.405  10.317 -12.633  0.00  0.00    +0.000 A 
ATOM     15  C   UNL     1     -35.176   9.183 -12.734  0.00  0.00    +0.000 A 
ATOM     16  O   UNL     1     -36.088   9.045 -13.785  0.00  0.00    +0.000 OA
ATOM     17  C   UNL     1     -35.076   8.198 -11.764  0.00  0.00    +0.000 A 
ENDBRANCH   9  10
ENDBRANCH   7   8
BRANCH   1  18
ATOM     18  O   UNL     1     -30.500   7.951 -12.207  0.00  0.00    +0.000 OA
BRANCH  18  21
ATOM     19  C   UNL     1     -28.589  10.316 -10.824  0.00  0.00    +0.000 C 
ATOM     20  C   UNL     1     -28.616   9.552 -12.143  0.00  0.00    +0.000 C 
ATOM     21  C   UNL     1     -30.064   9.224 -11.809  0.00  0.00    +0.000 C 
ATOM     22  C   UNL     1     -29.658   9.340 -10.344  0.00  0.00    +0.000 C 
BRANCH  19  23
ATOM     23  C   UNL     1     -27.319  10.231 -10.083  0.00  0.00    +0.000 C 
ATOM     24  O   UNL     1     -26.770  11.299  -9.685  0.00  0.00    +0.000 OA
BRANCH  23  25
ATOM     25  O   UNL     1     -27.100   9.083  -9.328  0.00  0.00    +0.000 OA
BRANCH  25  27
ATOM     26  C   UNL     1     -25.168   8.478  -8.091  0.00  0.00    +0.000 C 
ATOM     27  C   UNL     1     -25.887   8.382  -9.419  0.00  0.00    +0.000 C 
ENDBRANCH  25  27
ENDBRANCH  23  25
ENDBRANCH  19  23
BRANCH  19  28
ATOM     28  C   UNL     1     -29.170  11.664 -10.931  0.00  0.00    +0.000 C 
ATOM     29  O   UNL     1     -29.749  12.153  -9.921  0.00  0.00    +0.000 OA
BRANCH  28  30
ATOM     30  O   UNL     1     -28.563  12.579 -11.788  0.00  0.00    +0.000 OA
BRANCH  30  31
ATOM     31  C   UNL     1     -28.675  13.967 -11.599  0.00  0.00    +0.000 C 
ATOM     32  C   UNL     1     -27.376  14.487 -11.005  0.00  0.00    +0.000 C 
ENDBRANCH  30  31
ENDBRANCH  28  30
ENDBRANCH  19  28
ENDBRANCH  18  21
ENDBRANCH   1  18
TORSDOF 10
ENDMDL
MODEL 10
REMARK VINA RESULT:      -6.1     38.970     41.573
REMARK  Name = 
REMARK  10 active torsions:
REMARK  status: ('A' for Active; 'I' for Inactive)
REMARK    1  A    between atoms: C_2  and  O_3
REMARK    2  A    between atoms: O_3  and  C_4
REMARK    3  A    between atoms: C_4  and  C_6
REMARK    4  A    between atoms: C_6  and  C_7
REMARK    5  A    between atoms: C_7  and  O_9
REMARK    6  A    between atoms: O_9  and  C_10
REMARK    7  A    between atoms: C_13  and  O_14
REMARK    8  A    between atoms: O_14  and  C_15
REMARK    9  A    between atoms: C_21  and  C_22
REMARK   10  A    between atoms: C_23  and  C_24
REMARK                            x       y       z     vdW  Elec       q    Type
REMARK                         _______ _______ _______ _____ _____    ______ ____
ROOT
ATOM      1  C   UNL     1      -7.111   3.681 -30.258  0.00  0.00    +0.000 A 
ATOM      2  C   UNL     1      -6.521   2.448 -30.007  0.00  0.00    +0.000 A 
ATOM      3  C   UNL     1      -7.139   1.279 -30.437  0.00  0.00    +0.000 A 
ATOM      4  O   UNL     1      -7.170   0.129 -29.643  0.00  0.00    +0.000 OA
ATOM      5  C   UNL     1      -8.068   1.419 -31.460  0.00  0.00    +0.000 A 
ATOM      6  C   UNL     1      -8.606   2.660 -31.775  0.00  0.00    +0.000 A 
ATOM      7  C   UNL     1      -8.246   3.789 -31.049  0.00  0.00    +0.000 A 
ENDROOT
BRANCH   7   8
ATOM      8  C   UNL     1      -9.236   4.805 -30.662  0.00  0.00    +0.000 C 
ATOM      9  C   UNL     1      -9.311   5.994 -31.212  0.00  0.00    +0.000 C 
BRANCH   9  10
ATOM     10  C   UNL     1      -9.194   7.252 -30.459  0.00  0.00    +0.000 A 
ATOM     11  C   UNL     1      -8.698   7.242 -29.161  0.00  0.00    +0.000 A 
ATOM     12  C   UNL     1      -7.859   8.261 -28.730  0.00  0.00    +0.000 A 
ATOM     13  O   UNL     1      -7.150   8.158 -27.529  0.00  0.00    +0.000 OA
ATOM     14  C   UNL     1      -7.450   9.284 -29.575  0.00  0.00    +0.000 A 
ATOM     15  C   UNL     1      -8.091   9.397 -30.786  0.00  0.00    +0.000 A 
ATOM     16  O   UNL     1      -7.848  10.502 -31.608  0.00  0.00    +0.000 OA
ATOM     17  C   UNL     1      -9.012   8.433 -31.166  0.00  0.00    +0.000 A 
ENDBRANCH   9  10
ENDBRANCH   7   8
BRANCH   1  18
ATOM     18  O   UNL     1      -6.446   4.884 -29.998  0.00  0.00    +0.000 OA
BRANCH  18  21
ATOM     19  C   UNL     1      -3.789   6.452 -31.279  0.00  0.00    +0.000 C 
ATOM     20  C   UNL     1      -4.029   5.241 -30.384  0.00  0.00    +0.000 C 
ATOM     21  C   UNL     1      -5.454   5.252 -30.920  0.00  0.00    +0.000 C 
ATOM     22  C   UNL     1      -5.274   6.754 -31.110  0.00  0.00    +0.000 C 
BRANCH  19  23
ATOM     23  C   UNL     1      -2.897   7.477 -30.711  0.00  0.00    +0.000 C 
ATOM     24  O   UNL     1      -2.042   7.131 -29.844  0.00  0.00    +0.000 OA
BRANCH  23  25
ATOM     25  O   UNL     1      -2.579   8.562 -31.521  0.00  0.00    +0.000 OA
BRANCH  25  27
ATOM     26  C   UNL     1      -4.242  10.249 -31.393  0.00  0.00    +0.000 C 
ATOM     27  C   UNL     1      -2.807   9.877 -31.086  0.00  0.00    +0.000 C 
ENDBRANCH  25  27
ENDBRANCH  23  25
ENDBRANCH  19  23
BRANCH  19  28
ATOM     28  C   UNL     1      -3.521   6.085 -32.679  0.00  0.00    +0.000 C 
ATOM     29  O   UNL     1      -3.881   6.880 -33.591  0.00  0.00    +0.000 OA
BRANCH  28  30
ATOM     30  O   UNL     1      -2.396   5.310 -32.955  0.00  0.00    +0.000 OA
BRANCH  30  31
ATOM     31  C   UNL     1      -2.413   4.288 -33.919  0.00  0.00    +0.000 C 
ATOM     32  C   UNL     1      -3.571   3.350 -33.617  0.00  0.00    +0.000 C 
ENDBRANCH  30  31
ENDBRANCH  28  30
ENDBRANCH  19  28
ENDBRANCH  18  21
ENDBRANCH   1  18
TORSDOF 10
ENDMDL
