MODEL 1
REMARK VINA RESULT:      -7.1      0.000      0.000
REMARK  Name = 
REMARK  9 active torsions:
REMARK  status: ('A' for Active; 'I' for Inactive)
REMARK    1  A    between atoms: C_2  and  O_3
REMARK    2  A    between atoms: O_3  and  C_4
REMARK    3  A    between atoms: C_4  and  C_6
REMARK    4  A    between atoms: C_6  and  C_8
REMARK    5  A    between atoms: C_8  and  O_9
REMARK    6  A    between atoms: C_8  and  C_27
REMARK    7  A    between atoms: O_9  and  C_10
REMARK    8  A    between atoms: C_16  and  C_17
REMARK    9  A    between atoms: C_18  and  C_19
REMARK                            x       y       z     vdW  Elec       q    Type
REMARK                         _______ _______ _______ _____ _____    ______ ____
ROOT
ATOM      1  C   UNL     1     -34.401  -4.398  -5.909  0.00  0.00    +0.000 A 
ATOM      2  C   UNL     1     -34.875  -3.847  -4.746  0.00  0.00    +0.000 A 
ATOM      3  C   UNL     1     -36.063  -3.139  -4.774  0.00  0.00    +0.000 A 
ATOM      4  O   UNL     1     -36.338  -2.208  -3.780  0.00  0.00    +0.000 OA
ATOM      5  C   UNL     1     -36.737  -2.980  -5.972  0.00  0.00    +0.000 A 
ATOM      6  C   UNL     1     -36.286  -3.577  -7.142  0.00  0.00    +0.000 A 
ATOM      7  C   UNL     1     -35.247  -4.487  -6.994  0.00  0.00    +0.000 A 
ENDROOT
BRANCH   7   8
ATOM      8  C   UNL     1     -35.046  -5.607  -7.923  0.00  0.00    +0.000 C 
ATOM      9  C   UNL     1     -35.889  -6.604  -8.036  0.00  0.00    +0.000 C 
BRANCH   9  10
ATOM     10  C   UNL     1     -36.462  -7.084  -9.286  0.00  0.00    +0.000 A 
ATOM     11  C   UNL     1     -37.603  -6.486  -9.807  0.00  0.00    +0.000 A 
ATOM     12  C   UNL     1     -37.785  -6.333 -11.176  0.00  0.00    +0.000 A 
ATOM     13  O   UNL     1     -38.969  -5.843 -11.707  0.00  0.00    +0.000 OA
ATOM     14  C   UNL     1     -36.779  -6.689 -12.051  0.00  0.00    +0.000 A 
ATOM     15  C   UNL     1     -35.791  -7.544 -11.578  0.00  0.00    +0.000 A 
ATOM     16  O   UNL     1     -34.731  -7.820 -12.446  0.00  0.00    +0.000 OA
ATOM     17  C   UNL     1     -35.732  -7.802 -10.227  0.00  0.00    +0.000 A 
ENDBRANCH   9  10
ENDBRANCH   7   8
BRANCH   1  18
ATOM     18  O   UNL     1     -33.106  -4.890  -6.059  0.00  0.00    +0.000 OA
BRANCH  18  19
ATOM     19  C   UNL     1     -32.162  -4.313  -4.968  0.00  0.00    +0.000 C 
BRANCH  19  20
ATOM     20  C   UNL     1     -31.447  -3.300  -6.070  0.00  0.00    +0.000 C 
ATOM     21  F   UNL     1     -31.447  -3.951  -7.245  0.00  0.00    +0.000 F 
ATOM     22  F   UNL     1     -32.330  -2.252  -6.007  0.00  0.00    +0.000 F 
ATOM     23  F   UNL     1     -30.271  -2.923  -5.540  0.00  0.00    +0.000 F 
ENDBRANCH  19  20
BRANCH  19  24
ATOM     24  C   UNL     1     -31.007  -5.597  -5.219  0.00  0.00    +0.000 C 
ATOM     25  C   UNL     1     -32.095  -6.715  -4.701  0.00  0.00    +0.000 C 
BRANCH  24  26
ATOM     26  C   UNL     1     -30.299  -5.369  -3.795  0.00  0.00    +0.000 C 
ATOM     27  O   UNL     1     -29.047  -5.315  -4.013  0.00  0.00    +0.000 OA
BRANCH  26  28
ATOM     28  O   UNL     1     -30.690  -6.000  -2.679  0.00  0.00    +0.000 OA
BRANCH  28  30
ATOM     29  C   UNL     1     -31.897  -5.154  -1.259  0.00  0.00    +0.000 C 
ATOM     30  C   UNL     1     -31.015  -5.250  -1.507  0.00  0.00    +0.000 C 
ENDBRANCH  28  30
ENDBRANCH  26  28
ENDBRANCH  24  26
ENDBRANCH  19  24
ENDBRANCH  18  19
ENDBRANCH   1  18
TORSDOF 9
ENDMDL
MODEL 2
REMARK VINA RESULT:      -6.4     13.712     17.968
REMARK  Name = 
REMARK  9 active torsions:
REMARK  status: ('A' for Active; 'I' for Inactive)
REMARK    1  A    between atoms: C_2  and  O_3
REMARK    2  A    between atoms: O_3  and  C_4
REMARK    3  A    between atoms: C_4  and  C_6
REMARK    4  A    between atoms: C_6  and  C_8
REMARK    5  A    between atoms: C_8  and  O_9
REMARK    6  A    between atoms: C_8  and  C_27
REMARK    7  A    between atoms: O_9  and  C_10
REMARK    8  A    between atoms: C_16  and  C_17
REMARK    9  A    between atoms: C_18  and  C_19
REMARK                            x       y       z     vdW  Elec       q    Type
REMARK                         _______ _______ _______ _____ _____    ______ ____
ROOT
ATOM      1  C   UNL     1     -25.373   4.973  -0.488  0.00  0.00    +0.000 A 
ATOM      2  C   UNL     1     -25.165   4.142  -1.559  0.00  0.00    +0.000 A 
ATOM      3  C   UNL     1     -25.638   2.844  -1.505  0.00  0.00    +0.000 A 
ATOM      4  O   UNL     1     -25.078   1.867  -2.319  0.00  0.00    +0.000 OA
ATOM      5  C   UNL     1     -26.290   2.400  -0.368  0.00  0.00    +0.000 A 
ATOM      6  C   UNL     1     -26.545   3.251   0.700  0.00  0.00    +0.000 A 
ATOM      7  C   UNL     1     -26.286   4.597   0.475  0.00  0.00    +0.000 A 
ENDROOT
BRANCH   7   8
ATOM      8  C   UNL     1     -27.007   5.663   1.182  0.00  0.00    +0.000 C 
ATOM      9  C   UNL     1     -26.866   5.895   2.464  0.00  0.00    +0.000 C 
BRANCH   9  10
ATOM     10  C   UNL     1     -26.567   7.192   3.056  0.00  0.00    +0.000 A 
ATOM     11  C   UNL     1     -26.044   7.267   4.342  0.00  0.00    +0.000 A 
ATOM     12  C   UNL     1     -25.111   8.236   4.692  0.00  0.00    +0.000 A 
ATOM     13  O   UNL     1     -24.672   8.390   5.999  0.00  0.00    +0.000 OA
ATOM     14  C   UNL     1     -24.607   9.090   3.732  0.00  0.00    +0.000 A 
ATOM     15  C   UNL     1     -25.325   9.220   2.550  0.00  0.00    +0.000 A 
ATOM     16  O   UNL     1     -24.754  10.016   1.552  0.00  0.00    +0.000 OA
ATOM     17  C   UNL     1     -26.353   8.339   2.301  0.00  0.00    +0.000 A 
ENDBRANCH   9  10
ENDBRANCH   7   8
BRANCH   1  18
ATOM     18  O   UNL     1     -24.720   6.191  -0.315  0.00  0.00    +0.000 OA
BRANCH  18  19
ATOM     19  C   UNL     1     -23.684   6.432  -1.449  0.00  0.00    +0.000 C 
BRANCH  19  20
ATOM     20  C   UNL     1     -22.430   6.386  -0.363  0.00  0.00    +0.000 C 
ATOM     21  F   UNL     1     -22.912   6.857   0.798  0.00  0.00    +0.000 F 
ATOM     22  F   UNL     1     -22.189   5.035  -0.366  0.00  0.00    +0.000 F 
ATOM     23  F   UNL     1     -21.398   7.022  -0.941  0.00  0.00    +0.000 F 
ENDBRANCH  19  20
BRANCH  19  24
ATOM     24  C   UNL     1     -23.883   8.161  -1.330  0.00  0.00    +0.000 C 
ATOM     25  C   UNL     1     -25.438   8.046  -1.846  0.00  0.00    +0.000 C 
BRANCH  24  26
ATOM     26  C   UNL     1     -23.237   8.431  -2.776  0.00  0.00    +0.000 C 
ATOM     27  O   UNL     1     -22.408   9.386  -2.634  0.00  0.00    +0.000 OA
BRANCH  26  28
ATOM     28  O   UNL     1     -23.957   8.420  -3.907  0.00  0.00    +0.000 OA
BRANCH  28  30
ATOM     29  C   UNL     1     -23.887   9.148  -5.818  0.00  0.00    +0.000 C 
ATOM     30  C   UNL     1     -23.673   9.357  -4.947  0.00  0.00    +0.000 C 
ENDBRANCH  28  30
ENDBRANCH  26  28
ENDBRANCH  24  26
ENDBRANCH  19  24
ENDBRANCH  18  19
ENDBRANCH   1  18
TORSDOF 9
ENDMDL
MODEL 3
REMARK VINA RESULT:      -6.4      3.428      7.391
REMARK  Name = 
REMARK  9 active torsions:
REMARK  status: ('A' for Active; 'I' for Inactive)
REMARK    1  A    between atoms: C_2  and  O_3
REMARK    2  A    between atoms: O_3  and  C_4
REMARK    3  A    between atoms: C_4  and  C_6
REMARK    4  A    between atoms: C_6  and  C_8
REMARK    5  A    between atoms: C_8  and  O_9
REMARK    6  A    between atoms: C_8  and  C_27
REMARK    7  A    between atoms: O_9  and  C_10
REMARK    8  A    between atoms: C_16  and  C_17
REMARK    9  A    between atoms: C_18  and  C_19
REMARK                            x       y       z     vdW  Elec       q    Type
REMARK                         _______ _______ _______ _____ _____    ______ ____
ROOT
ATOM      1  C   UNL     1     -35.410  -5.647  -3.941  0.00  0.00    +0.000 A 
ATOM      2  C   UNL     1     -36.684  -6.130  -3.778  0.00  0.00    +0.000 A 
ATOM      3  C   UNL     1     -36.862  -7.387  -3.229  0.00  0.00    +0.000 A 
ATOM      4  O   UNL     1     -38.040  -8.084  -3.462  0.00  0.00    +0.000 OA
ATOM      5  C   UNL     1     -35.757  -8.141  -2.877  0.00  0.00    +0.000 A 
ATOM      6  C   UNL     1     -34.467  -7.639  -2.995  0.00  0.00    +0.000 A 
ATOM      7  C   UNL     1     -34.372  -6.286  -3.296  0.00  0.00    +0.000 A 
ENDROOT
BRANCH   7   8
ATOM      8  C   UNL     1     -33.220  -5.471  -2.888  0.00  0.00    +0.000 C 
ATOM      9  C   UNL     1     -31.997  -5.703  -3.296  0.00  0.00    +0.000 C 
BRANCH   9  10
ATOM     10  C   UNL     1     -31.107  -4.716  -3.893  0.00  0.00    +0.000 A 
ATOM     11  C   UNL     1     -29.774  -4.654  -3.505  0.00  0.00    +0.000 A 
ATOM     12  C   UNL     1     -28.767  -4.344  -4.410  0.00  0.00    +0.000 A 
ATOM     13  O   UNL     1     -27.451  -4.167  -4.008  0.00  0.00    +0.000 OA
ATOM     14  C   UNL     1     -29.063  -4.187  -5.748  0.00  0.00    +0.000 A 
ATOM     15  C   UNL     1     -30.390  -3.951  -6.087  0.00  0.00    +0.000 A 
ATOM     16  O   UNL     1     -30.689  -3.887  -7.451  0.00  0.00    +0.000 OA
ATOM     17  C   UNL     1     -31.357  -4.115  -5.121  0.00  0.00    +0.000 A 
ENDBRANCH   9  10
ENDBRANCH   7   8
BRANCH   1  18
ATOM     18  O   UNL     1     -35.098  -4.533  -4.717  0.00  0.00    +0.000 OA
BRANCH  18  19
ATOM     19  C   UNL     1     -36.317  -4.097  -5.578  0.00  0.00    +0.000 C 
BRANCH  19  20
ATOM     20  C   UNL     1     -35.453  -4.317  -6.977  0.00  0.00    +0.000 C 
ATOM     21  F   UNL     1     -34.248  -3.762  -6.775  0.00  0.00    +0.000 F 
ATOM     22  F   UNL     1     -35.443  -5.690  -7.012  0.00  0.00    +0.000 F 
ATOM     23  F   UNL     1     -36.219  -3.854  -7.979  0.00  0.00    +0.000 F 
ENDBRANCH  19  20
BRANCH  19  24
ATOM     24  C   UNL     1     -35.879  -2.414  -5.432  0.00  0.00    +0.000 C 
ATOM     25  C   UNL     1     -36.371  -2.394  -3.864  0.00  0.00    +0.000 C 
BRANCH  24  26
ATOM     26  C   UNL     1     -37.266  -1.900  -6.058  0.00  0.00    +0.000 C 
ATOM     27  O   UNL     1     -36.969  -1.047  -6.955  0.00  0.00    +0.000 OA
BRANCH  26  28
ATOM     28  O   UNL     1     -38.348  -1.638  -5.311  0.00  0.00    +0.000 OA
BRANCH  28  30
ATOM     29  C   UNL     1     -39.825  -2.915  -5.924  0.00  0.00    +0.000 C 
ATOM     30  C   UNL     1     -39.645  -2.026  -5.767  0.00  0.00    +0.000 C 
ENDBRANCH  28  30
ENDBRANCH  26  28
ENDBRANCH  24  26
ENDBRANCH  19  24
ENDBRANCH  18  19
ENDBRANCH   1  18
TORSDOF 9
ENDMDL
MODEL 4
REMARK VINA RESULT:      -6.3     13.749     15.888
REMARK  Name = 
REMARK  9 active torsions:
REMARK  status: ('A' for Active; 'I' for Inactive)
REMARK    1  A    between atoms: C_2  and  O_3
REMARK    2  A    between atoms: O_3  and  C_4
REMARK    3  A    between atoms: C_4  and  C_6
REMARK    4  A    between atoms: C_6  and  C_8
REMARK    5  A    between atoms: C_8  and  O_9
REMARK    6  A    between atoms: C_8  and  C_27
REMARK    7  A    between atoms: O_9  and  C_10
REMARK    8  A    between atoms: C_16  and  C_17
REMARK    9  A    between atoms: C_18  and  C_19
REMARK                            x       y       z     vdW  Elec       q    Type
REMARK                         _______ _______ _______ _____ _____    ______ ____
ROOT
ATOM      1  C   UNL     1     -29.076   7.216 -10.813  0.00  0.00    +0.000 A 
ATOM      2  C   UNL     1     -28.439   6.003 -10.760  0.00  0.00    +0.000 A 
ATOM      3  C   UNL     1     -29.197   4.848 -10.691  0.00  0.00    +0.000 A 
ATOM      4  O   UNL     1     -28.638   3.681 -10.187  0.00  0.00    +0.000 OA
ATOM      5  C   UNL     1     -30.577   4.938 -10.654  0.00  0.00    +0.000 A 
ATOM      6  C   UNL     1     -31.228   6.161 -10.755  0.00  0.00    +0.000 A 
ATOM      7  C   UNL     1     -30.426   7.245 -11.090  0.00  0.00    +0.000 A 
ENDROOT
BRANCH   7   8
ATOM      8  C   UNL     1     -30.951   8.416 -11.804  0.00  0.00    +0.000 C 
ATOM      9  C   UNL     1     -32.203   8.797 -11.734  0.00  0.00    +0.000 C 
BRANCH   9  10
ATOM     10  C   UNL     1     -32.656  10.143 -11.413  0.00  0.00    +0.000 A 
ATOM     11  C   UNL     1     -33.595  10.342 -10.408  0.00  0.00    +0.000 A 
ATOM     12  C   UNL     1     -33.546  11.454  -9.576  0.00  0.00    +0.000 A 
ATOM     13  O   UNL     1     -34.544  11.719  -8.648  0.00  0.00    +0.000 OA
ATOM     14  C   UNL     1     -32.495  12.342  -9.669  0.00  0.00    +0.000 A 
ATOM     15  C   UNL     1     -31.739  12.321 -10.835  0.00  0.00    +0.000 A 
ATOM     16  O   UNL     1     -30.622  13.160 -10.876  0.00  0.00    +0.000 OA
ATOM     17  C   UNL     1     -31.923  11.284 -11.722  0.00  0.00    +0.000 A 
ENDBRANCH   9  10
ENDBRANCH   7   8
BRANCH   1  18
ATOM     18  O   UNL     1     -28.434   8.436 -10.614  0.00  0.00    +0.000 OA
BRANCH  18  19
ATOM     19  C   UNL     1     -28.240   8.721  -9.097  0.00  0.00    +0.000 C 
BRANCH  19  20
ATOM     20  C   UNL     1     -29.137  10.113  -9.207  0.00  0.00    +0.000 C 
ATOM     21  F   UNL     1     -28.960  10.586 -10.451  0.00  0.00    +0.000 F 
ATOM     22  F   UNL     1     -30.384   9.587  -8.976  0.00  0.00    +0.000 F 
ATOM     23  F   UNL     1     -28.780  10.883  -8.166  0.00  0.00    +0.000 F 
ENDBRANCH  19  20
BRANCH  19  24
ATOM     24  C   UNL     1     -26.724   9.532  -9.394  0.00  0.00    +0.000 C 
ATOM     25  C   UNL     1     -26.000   8.103  -9.763  0.00  0.00    +0.000 C 
BRANCH  24  26
ATOM     26  C   UNL     1     -26.315   9.540  -7.841  0.00  0.00    +0.000 C 
ATOM     27  O   UNL     1     -25.898  10.714  -7.578  0.00  0.00    +0.000 OA
BRANCH  26  28
ATOM     28  O   UNL     1     -25.666   8.525  -7.254  0.00  0.00    +0.000 OA
BRANCH  28  30
ATOM     29  C   UNL     1     -23.733   8.208  -6.663  0.00  0.00    +0.000 C 
ATOM     30  C   UNL     1     -24.455   8.766  -6.536  0.00  0.00    +0.000 C 
ENDBRANCH  28  30
ENDBRANCH  26  28
ENDBRANCH  24  26
ENDBRANCH  19  24
ENDBRANCH  18  19
ENDBRANCH   1  18
TORSDOF 9
ENDMDL
MODEL 5
REMARK VINA RESULT:      -6.3     14.559     17.107
REMARK  Name = 
REMARK  9 active torsions:
REMARK  status: ('A' for Active; 'I' for Inactive)
REMARK    1  A    between atoms: C_2  and  O_3
REMARK    2  A    between atoms: O_3  and  C_4
REMARK    3  A    between atoms: C_4  and  C_6
REMARK    4  A    between atoms: C_6  and  C_8
REMARK    5  A    between atoms: C_8  and  O_9
REMARK    6  A    between atoms: C_8  and  C_27
REMARK    7  A    between atoms: O_9  and  C_10
REMARK    8  A    between atoms: C_16  and  C_17
REMARK    9  A    between atoms: C_18  and  C_19
REMARK                            x       y       z     vdW  Elec       q    Type
REMARK                         _______ _______ _______ _____ _____    ______ ____
ROOT
ATOM      1  C   UNL     1     -26.550   9.589  -7.877  0.00  0.00    +0.000 A 
ATOM      2  C   UNL     1     -26.036  10.457  -6.947  0.00  0.00    +0.000 A 
ATOM      3  C   UNL     1     -24.947  10.064  -6.190  0.00  0.00    +0.000 A 
ATOM      4  O   UNL     1     -24.690  10.681  -4.972  0.00  0.00    +0.000 OA
ATOM      5  C   UNL     1     -24.411   8.801  -6.368  0.00  0.00    +0.000 A 
ATOM      6  C   UNL     1     -24.897   7.937  -7.341  0.00  0.00    +0.000 A 
ATOM      7  C   UNL     1     -25.805   8.487  -8.238  0.00  0.00    +0.000 A 
ENDROOT
BRANCH   7   8
ATOM      8  C   UNL     1     -25.959   7.979  -9.607  0.00  0.00    +0.000 C 
ATOM      9  C   UNL     1     -26.583   6.863  -9.891  0.00  0.00    +0.000 C 
BRANCH   9  10
ATOM     10  C   UNL     1     -27.647   6.720 -10.876  0.00  0.00    +0.000 A 
ATOM     11  C   UNL     1     -28.719   5.872 -10.627  0.00  0.00    +0.000 A 
ATOM     12  C   UNL     1     -30.006   6.182 -11.052  0.00  0.00    +0.000 A 
ATOM     13  O   UNL     1     -31.058   5.290 -10.909  0.00  0.00    +0.000 OA
ATOM     14  C   UNL     1     -30.263   7.398 -11.650  0.00  0.00    +0.000 A 
ATOM     15  C   UNL     1     -29.179   8.101 -12.164  0.00  0.00    +0.000 A 
ATOM     16  O   UNL     1     -29.443   9.372 -12.683  0.00  0.00    +0.000 OA
ATOM     17  C   UNL     1     -27.908   7.674 -11.853  0.00  0.00    +0.000 A 
ENDBRANCH   9  10
ENDBRANCH   7   8
BRANCH   1  18
ATOM     18  O   UNL     1     -27.786   9.761  -8.495  0.00  0.00    +0.000 OA
BRANCH  18  19
ATOM     19  C   UNL     1     -28.298  11.218  -8.319  0.00  0.00    +0.000 C 
BRANCH  19  20
ATOM     20  C   UNL     1     -29.734  10.677  -7.687  0.00  0.00    +0.000 C 
ATOM     21  F   UNL     1     -30.118   9.638  -8.445  0.00  0.00    +0.000 F 
ATOM     22  F   UNL     1     -29.302  10.329  -6.432  0.00  0.00    +0.000 F 
ATOM     23  F   UNL     1     -30.542  11.746  -7.599  0.00  0.00    +0.000 F 
ENDBRANCH  19  20
BRANCH  19  24
ATOM     24  C   UNL     1     -28.896  11.258  -9.958  0.00  0.00    +0.000 C 
ATOM     25  C   UNL     1     -27.362  11.249 -10.547  0.00  0.00    +0.000 C 
BRANCH  24  26
ATOM     26  C   UNL     1     -29.074  12.854  -9.956  0.00  0.00    +0.000 C 
ATOM     27  O   UNL     1     -30.293  13.087 -10.239  0.00  0.00    +0.000 OA
BRANCH  26  28
ATOM     28  O   UNL     1     -28.164  13.688 -10.478  0.00  0.00    +0.000 OA
BRANCH  28  30
ATOM     29  C   UNL     1     -28.031  14.470 -12.364  0.00  0.00    +0.000 C 
ATOM     30  C   UNL     1     -28.510  14.529 -11.580  0.00  0.00    +0.000 C 
ENDBRANCH  28  30
ENDBRANCH  26  28
ENDBRANCH  24  26
ENDBRANCH  19  24
ENDBRANCH  18  19
ENDBRANCH   1  18
TORSDOF 9
ENDMDL
MODEL 6
REMARK VINA RESULT:      -6.3     13.565     17.283
REMARK  Name = 
REMARK  9 active torsions:
REMARK  status: ('A' for Active; 'I' for Inactive)
REMARK    1  A    between atoms: C_2  and  O_3
REMARK    2  A    between atoms: O_3  and  C_4
REMARK    3  A    between atoms: C_4  and  C_6
REMARK    4  A    between atoms: C_6  and  C_8
REMARK    5  A    between atoms: C_8  and  O_9
REMARK    6  A    between atoms: C_8  and  C_27
REMARK    7  A    between atoms: O_9  and  C_10
REMARK    8  A    between atoms: C_16  and  C_17
REMARK    9  A    between atoms: C_18  and  C_19
REMARK                            x       y       z     vdW  Elec       q    Type
REMARK                         _______ _______ _______ _____ _____    ______ ____
ROOT
ATOM      1  C   UNL     1     -23.784   8.890  -4.144  0.00  0.00    +0.000 A 
ATOM      2  C   UNL     1     -23.111  10.006  -4.572  0.00  0.00    +0.000 A 
ATOM      3  C   UNL     1     -22.427  10.773  -3.648  0.00  0.00    +0.000 A 
ATOM      4  O   UNL     1     -22.135  12.102  -3.930  0.00  0.00    +0.000 OA
ATOM      5  C   UNL     1     -22.451  10.417  -2.311  0.00  0.00    +0.000 A 
ATOM      6  C   UNL     1     -23.091   9.262  -1.879  0.00  0.00    +0.000 A 
ATOM      7  C   UNL     1     -23.524   8.402  -2.881  0.00  0.00    +0.000 A 
ENDROOT
BRANCH   7   8
ATOM      8  C   UNL     1     -23.654   6.955  -2.669  0.00  0.00    +0.000 C 
ATOM      9  C   UNL     1     -23.592   6.395  -1.486  0.00  0.00    +0.000 C 
BRANCH   9  10
ATOM     10  C   UNL     1     -24.574   5.468  -0.942  0.00  0.00    +0.000 A 
ATOM     11  C   UNL     1     -25.927   5.788  -0.968  0.00  0.00    +0.000 A 
ATOM     12  C   UNL     1     -26.900   4.819  -1.176  0.00  0.00    +0.000 A 
ATOM     13  O   UNL     1     -28.254   5.110  -1.089  0.00  0.00    +0.000 OA
ATOM     14  C   UNL     1     -26.533   3.520  -1.462  0.00  0.00    +0.000 A 
ATOM     15  C   UNL     1     -25.235   3.136  -1.144  0.00  0.00    +0.000 A 
ATOM     16  O   UNL     1     -24.850   1.847  -1.524  0.00  0.00    +0.000 OA
ATOM     17  C   UNL     1     -24.329   4.108  -0.787  0.00  0.00    +0.000 A 
ENDBRANCH   9  10
ENDBRANCH   7   8
BRANCH   1  18
ATOM     18  O   UNL     1     -24.716   8.204  -4.920  0.00  0.00    +0.000 OA
BRANCH  18  19
ATOM     19  C   UNL     1     -25.795   9.173  -5.480  0.00  0.00    +0.000 C 
BRANCH  19  20
ATOM     20  C   UNL     1     -26.926   8.585  -4.419  0.00  0.00    +0.000 C 
ATOM     21  F   UNL     1     -26.640   7.287  -4.235  0.00  0.00    +0.000 F 
ATOM     22  F   UNL     1     -26.646   9.383  -3.338  0.00  0.00    +0.000 F 
ATOM     23  F   UNL     1     -28.129   8.918  -4.916  0.00  0.00    +0.000 F 
ENDBRANCH  19  20
BRANCH  19  24
ATOM     24  C   UNL     1     -26.220   8.047  -6.744  0.00  0.00    +0.000 C 
ATOM     25  C   UNL     1     -24.761   8.268  -7.469  0.00  0.00    +0.000 C 
BRANCH  24  26
ATOM     26  C   UNL     1     -27.009   9.155  -7.597  0.00  0.00    +0.000 C 
ATOM     27  O   UNL     1     -28.165   8.679  -7.836  0.00  0.00    +0.000 OA
BRANCH  26  28
ATOM     28  O   UNL     1     -26.434   9.863  -8.580  0.00  0.00    +0.000 OA
BRANCH  28  30
ATOM     29  C   UNL     1     -27.171  10.925 -10.166  0.00  0.00    +0.000 C 
ATOM     30  C   UNL     1     -27.127  10.077  -9.811  0.00  0.00    +0.000 C 
ENDBRANCH  28  30
ENDBRANCH  26  28
ENDBRANCH  24  26
ENDBRANCH  19  24
ENDBRANCH  18  19
ENDBRANCH   1  18
TORSDOF 9
ENDMDL
MODEL 7
REMARK VINA RESULT:      -6.1      3.617      6.610
REMARK  Name = 
REMARK  9 active torsions:
REMARK  status: ('A' for Active; 'I' for Inactive)
REMARK    1  A    between atoms: C_2  and  O_3
REMARK    2  A    between atoms: O_3  and  C_4
REMARK    3  A    between atoms: C_4  and  C_6
REMARK    4  A    between atoms: C_6  and  C_8
REMARK    5  A    between atoms: C_8  and  O_9
REMARK    6  A    between atoms: C_8  and  C_27
REMARK    7  A    between atoms: O_9  and  C_10
REMARK    8  A    between atoms: C_16  and  C_17
REMARK    9  A    between atoms: C_18  and  C_19
REMARK                            x       y       z     vdW  Elec       q    Type
REMARK                         _______ _______ _______ _____ _____    ______ ____
ROOT
ATOM      1  C   UNL     1     -33.034  -6.274  -3.072  0.00  0.00    +0.000 A 
ATOM      2  C   UNL     1     -32.179  -7.134  -2.430  0.00  0.00    +0.000 A 
ATOM      3  C   UNL     1     -30.816  -6.921  -2.523  0.00  0.00    +0.000 A 
ATOM      4  O   UNL     1     -29.934  -7.971  -2.300  0.00  0.00    +0.000 OA
ATOM      5  C   UNL     1     -30.339  -5.864  -3.278  0.00  0.00    +0.000 A 
ATOM      6  C   UNL     1     -31.200  -4.963  -3.891  0.00  0.00    +0.000 A 
ATOM      7  C   UNL     1     -32.540  -5.074  -3.539  0.00  0.00    +0.000 A 
ENDROOT
BRANCH   7   8
ATOM      8  C   UNL     1     -33.457  -3.928  -3.577  0.00  0.00    +0.000 C 
ATOM      9  C   UNL     1     -33.471  -3.053  -4.552  0.00  0.00    +0.000 C 
BRANCH   9  10
ATOM     10  C   UNL     1     -34.653  -2.640  -5.296  0.00  0.00    +0.000 A 
ATOM     11  C   UNL     1     -34.971  -3.260  -6.499  0.00  0.00    +0.000 A 
ATOM     12  C   UNL     1     -36.290  -3.489  -6.872  0.00  0.00    +0.000 A 
ATOM     13  O   UNL     1     -36.619  -4.001  -8.119  0.00  0.00    +0.000 OA
ATOM     14  C   UNL     1     -37.318  -3.191  -6.002  0.00  0.00    +0.000 A 
ATOM     15  C   UNL     1     -37.039  -2.317  -4.958  0.00  0.00    +0.000 A 
ATOM     16  O   UNL     1     -38.063  -2.097  -4.031  0.00  0.00    +0.000 OA
ATOM     17  C   UNL     1     -35.727  -1.982  -4.709  0.00  0.00    +0.000 A 
ENDBRANCH   9  10
ENDBRANCH   7   8
BRANCH   1  18
ATOM     18  O   UNL     1     -34.387  -6.535  -3.274  0.00  0.00    +0.000 OA
BRANCH  18  19
ATOM     19  C   UNL     1     -34.582  -7.782  -4.182  0.00  0.00    +0.000 C 
BRANCH  19  20
ATOM     20  C   UNL     1     -35.157  -6.838  -5.418  0.00  0.00    +0.000 C 
ATOM     21  F   UNL     1     -35.954  -5.914  -4.856  0.00  0.00    +0.000 F 
ATOM     22  F   UNL     1     -33.966  -6.343  -5.886  0.00  0.00    +0.000 F 
ATOM     23  F   UNL     1     -35.680  -7.674  -6.330  0.00  0.00    +0.000 F 
ENDBRANCH  19  20
BRANCH  19  24
ATOM     24  C   UNL     1     -36.166  -8.081  -3.513  0.00  0.00    +0.000 C 
ATOM     25  C   UNL     1     -35.502  -8.724  -2.154  0.00  0.00    +0.000 C 
BRANCH  24  26
ATOM     26  C   UNL     1     -36.341  -9.471  -4.298  0.00  0.00    +0.000 C 
ATOM     27  O   UNL     1     -37.517  -9.471  -4.785  0.00  0.00    +0.000 OA
BRANCH  26  28
ATOM     28  O   UNL     1     -35.886 -10.638  -3.821  0.00  0.00    +0.000 OA
BRANCH  28  30
ATOM     29  C   UNL     1     -35.522 -12.583  -4.339  0.00  0.00    +0.000 C 
ATOM     30  C   UNL     1     -35.740 -11.761  -4.692  0.00  0.00    +0.000 C 
ENDBRANCH  28  30
ENDBRANCH  26  28
ENDBRANCH  24  26
ENDBRANCH  19  24
ENDBRANCH  18  19
ENDBRANCH   1  18
TORSDOF 9
ENDMDL
MODEL 8
REMARK VINA RESULT:      -6.0     29.132     31.640
REMARK  Name = 
REMARK  9 active torsions:
REMARK  status: ('A' for Active; 'I' for Inactive)
REMARK    1  A    between atoms: C_2  and  O_3
REMARK    2  A    between atoms: O_3  and  C_4
REMARK    3  A    between atoms: C_4  and  C_6
REMARK    4  A    between atoms: C_6  and  C_8
REMARK    5  A    between atoms: C_8  and  O_9
REMARK    6  A    between atoms: C_8  and  C_27
REMARK    7  A    between atoms: O_9  and  C_10
REMARK    8  A    between atoms: C_16  and  C_17
REMARK    9  A    between atoms: C_18  and  C_19
REMARK                            x       y       z     vdW  Elec       q    Type
REMARK                         _______ _______ _______ _____ _____    ______ ____
ROOT
ATOM      1  C   UNL     1     -15.377  17.492  -3.385  0.00  0.00    +0.000 A 
ATOM      2  C   UNL     1     -16.639  17.525  -2.848  0.00  0.00    +0.000 A 
ATOM      3  C   UNL     1     -17.685  18.001  -3.618  0.00  0.00    +0.000 A 
ATOM      4  O   UNL     1     -18.838  18.475  -3.004  0.00  0.00    +0.000 OA
ATOM      5  C   UNL     1     -17.439  18.455  -4.901  0.00  0.00    +0.000 A 
ATOM      6  C   UNL     1     -16.172  18.379  -5.467  0.00  0.00    +0.000 A 
ATOM      7  C   UNL     1     -15.233  17.651  -4.747  0.00  0.00    +0.000 A 
ENDROOT
BRANCH   7   8
ATOM      8  C   UNL     1     -14.105  16.969  -5.396  0.00  0.00    +0.000 C 
ATOM      9  C   UNL     1     -13.521  17.422  -6.478  0.00  0.00    +0.000 C 
BRANCH   9  10
ATOM     10  C   UNL     1     -12.087  17.620  -6.639  0.00  0.00    +0.000 A 
ATOM     11  C   UNL     1     -11.584  18.155  -7.820  0.00  0.00    +0.000 A 
ATOM     12  C   UNL     1     -10.488  19.009  -7.823  0.00  0.00    +0.000 A 
ATOM     13  O   UNL     1      -9.911  19.454  -9.004  0.00  0.00    +0.000 OA
ATOM     14  C   UNL     1      -9.931  19.425  -6.632  0.00  0.00    +0.000 A 
ATOM     15  C   UNL     1     -10.221  18.680  -5.495  0.00  0.00    +0.000 A 
ATOM     16  O   UNL     1      -9.726  19.167  -4.281  0.00  0.00    +0.000 OA
ATOM     17  C   UNL     1     -11.211  17.726  -5.565  0.00  0.00    +0.000 A 
ENDBRANCH   9  10
ENDBRANCH   7   8
BRANCH   1  18
ATOM     18  O   UNL     1     -14.222  17.294  -2.634  0.00  0.00    +0.000 OA
BRANCH  18  19
ATOM     19  C   UNL     1     -14.123  18.333  -1.481  0.00  0.00    +0.000 C 
BRANCH  19  20
ATOM     20  C   UNL     1     -12.740  18.978  -2.131  0.00  0.00    +0.000 C 
ATOM     21  F   UNL     1     -11.944  17.942  -2.441  0.00  0.00    +0.000 F 
ATOM     22  F   UNL     1     -13.286  19.613  -3.219  0.00  0.00    +0.000 F 
ATOM     23  F   UNL     1     -12.296  19.896  -1.257  0.00  0.00    +0.000 F 
ENDBRANCH  19  20
BRANCH  19  24
ATOM     24  C   UNL     1     -13.264  17.201  -0.469  0.00  0.00    +0.000 C 
ATOM     25  C   UNL     1     -14.669  16.447  -0.072  0.00  0.00    +0.000 C 
BRANCH  24  26
ATOM     26  C   UNL     1     -13.238  18.200   0.789  0.00  0.00    +0.000 C 
ATOM     27  O   UNL     1     -12.076  18.115   1.300  0.00  0.00    +0.000 OA
BRANCH  26  28
ATOM     28  O   UNL     1     -14.265  18.320   1.643  0.00  0.00    +0.000 OA
BRANCH  28  30
ATOM     29  C   UNL     1     -15.229  20.001   2.299  0.00  0.00    +0.000 C 
ATOM     30  C   UNL     1     -14.444  19.528   2.384  0.00  0.00    +0.000 C 
ENDBRANCH  28  30
ENDBRANCH  26  28
ENDBRANCH  24  26
ENDBRANCH  19  24
ENDBRANCH  18  19
ENDBRANCH   1  18
TORSDOF 9
ENDMDL
MODEL 9
REMARK VINA RESULT:      -6.0     13.568     15.397
REMARK  Name = 
REMARK  9 active torsions:
REMARK  status: ('A' for Active; 'I' for Inactive)
REMARK    1  A    between atoms: C_2  and  O_3
REMARK    2  A    between atoms: O_3  and  C_4
REMARK    3  A    between atoms: C_4  and  C_6
REMARK    4  A    between atoms: C_6  and  C_8
REMARK    5  A    between atoms: C_8  and  O_9
REMARK    6  A    between atoms: C_8  and  C_27
REMARK    7  A    between atoms: O_9  and  C_10
REMARK    8  A    between atoms: C_16  and  C_17
REMARK    9  A    between atoms: C_18  and  C_19
REMARK                            x       y       z     vdW  Elec       q    Type
REMARK                         _______ _______ _______ _____ _____    ______ ____
ROOT
ATOM      1  C   UNL     1     -29.002   7.230 -10.478  0.00  0.00    +0.000 A 
ATOM      2  C   UNL     1     -28.398   6.001 -10.563  0.00  0.00    +0.000 A 
ATOM      3  C   UNL     1     -29.187   4.867 -10.620  0.00  0.00    +0.000 A 
ATOM      4  O   UNL     1     -28.660   3.636 -10.250  0.00  0.00    +0.000 OA
ATOM      5  C   UNL     1     -30.564   4.989 -10.568  0.00  0.00    +0.000 A 
ATOM      6  C   UNL     1     -31.182   6.233 -10.530  0.00  0.00    +0.000 A 
ATOM      7  C   UNL     1     -30.351   7.325 -10.746  0.00  0.00    +0.000 A 
ENDROOT
BRANCH   7   8
ATOM      8  C   UNL     1     -30.844   8.582 -11.323  0.00  0.00    +0.000 C 
ATOM      9  C   UNL     1     -31.881   8.646 -12.121  0.00  0.00    +0.000 C 
BRANCH   9  10
ATOM     10  C   UNL     1     -33.020   9.539 -11.952  0.00  0.00    +0.000 A 
ATOM     11  C   UNL     1     -32.825  10.914 -11.891  0.00  0.00    +0.000 A 
ATOM     12  C   UNL     1     -33.740  11.803 -12.442  0.00  0.00    +0.000 A 
ATOM     13  O   UNL     1     -33.612  13.175 -12.284  0.00  0.00    +0.000 OA
ATOM     14  C   UNL     1     -34.823  11.330 -13.154  0.00  0.00    +0.000 A 
ATOM     15  C   UNL     1     -35.182  10.000 -12.965  0.00  0.00    +0.000 A 
ATOM     16  O   UNL     1     -36.221   9.511 -13.762  0.00  0.00    +0.000 OA
ATOM     17  C   UNL     1     -34.322   9.176 -12.275  0.00  0.00    +0.000 A 
ENDBRANCH   9  10
ENDBRANCH   7   8
BRANCH   1  18
ATOM     18  O   UNL     1     -28.327   8.402 -10.147  0.00  0.00    +0.000 OA
BRANCH  18  19
ATOM     19  C   UNL     1     -27.792   8.342  -8.688  0.00  0.00    +0.000 C 
BRANCH  19  20
ATOM     20  C   UNL     1     -28.868   9.510  -8.207  0.00  0.00    +0.000 C 
ATOM     21  F   UNL     1     -28.997  10.361  -9.238  0.00  0.00    +0.000 F 
ATOM     22  F   UNL     1     -29.968   8.716  -7.992  0.00  0.00    +0.000 F 
ATOM     23  F   UNL     1     -28.424   9.981  -7.031  0.00  0.00    +0.000 F 
ENDBRANCH  19  20
BRANCH  19  24
ATOM     24  C   UNL     1     -26.528   9.489  -9.053  0.00  0.00    +0.000 C 
ATOM     25  C   UNL     1     -25.708   8.353  -9.912  0.00  0.00    +0.000 C 
BRANCH  24  26
ATOM     26  C   UNL     1     -25.768   9.239  -7.661  0.00  0.00    +0.000 C 
ATOM     27  O   UNL     1     -25.579  10.383  -7.136  0.00  0.00    +0.000 OA
BRANCH  26  28
ATOM     28  O   UNL     1     -24.781   8.342  -7.521  0.00  0.00    +0.000 OA
BRANCH  28  30
ATOM     29  C   UNL     1     -24.296   7.864  -5.592  0.00  0.00    +0.000 C 
ATOM     30  C   UNL     1     -23.992   8.322  -6.331  0.00  0.00    +0.000 C 
ENDBRANCH  28  30
ENDBRANCH  26  28
ENDBRANCH  24  26
ENDBRANCH  19  24
ENDBRANCH  18  19
ENDBRANCH   1  18
TORSDOF 9
ENDMDL
MODEL 10
REMARK VINA RESULT:      -5.9     35.382     37.943
REMARK  Name = 
REMARK  9 active torsions:
REMARK  status: ('A' for Active; 'I' for Inactive)
REMARK    1  A    between atoms: C_2  and  O_3
REMARK    2  A    between atoms: O_3  and  C_4
REMARK    3  A    between atoms: C_4  and  C_6
REMARK    4  A    between atoms: C_6  and  C_8
REMARK    5  A    between atoms: C_8  and  O_9
REMARK    6  A    between atoms: C_8  and  C_27
REMARK    7  A    between atoms: O_9  and  C_10
REMARK    8  A    between atoms: C_16  and  C_17
REMARK    9  A    between atoms: C_18  and  C_19
REMARK                            x       y       z     vdW  Elec       q    Type
REMARK                         _______ _______ _______ _____ _____    ______ ____
ROOT
ATOM      1  C   UNL     1      -9.487  20.178 -22.364  0.00  0.00    +0.000 A 
ATOM      2  C   UNL     1      -8.313  20.814 -22.678  0.00  0.00    +0.000 A 
ATOM      3  C   UNL     1      -7.697  21.600 -21.721  0.00  0.00    +0.000 A 
ATOM      4  O   UNL     1      -6.806  22.593 -22.108  0.00  0.00    +0.000 OA
ATOM      5  C   UNL     1      -8.284  21.749 -20.477  0.00  0.00    +0.000 A 
ATOM      6  C   UNL     1      -9.447  21.069 -20.138  0.00  0.00    +0.000 A 
ATOM      7  C   UNL     1      -9.863  20.097 -21.040  0.00  0.00    +0.000 A 
ENDROOT
BRANCH   7   8
ATOM      8  C   UNL     1     -10.644  18.925 -20.624  0.00  0.00    +0.000 C 
ATOM      9  C   UNL     1     -11.614  18.985 -19.745  0.00  0.00    +0.000 C 
BRANCH   9  10
ATOM     10  C   UNL     1     -12.959  18.460 -19.939  0.00  0.00    +0.000 A 
ATOM     11  C   UNL     1     -14.046  19.325 -19.991  0.00  0.00    +0.000 A 
ATOM     12  C   UNL     1     -15.127  19.086 -20.831  0.00  0.00    +0.000 A 
ATOM     13  O   UNL     1     -16.264  19.880 -20.803  0.00  0.00    +0.000 OA
ATOM     14  C   UNL     1     -15.098  18.024 -21.711  0.00  0.00    +0.000 A 
ATOM     15  C   UNL     1     -14.182  17.009 -21.461  0.00  0.00    +0.000 A 
ATOM     16  O   UNL     1     -14.100  15.988 -22.412  0.00  0.00    +0.000 OA
ATOM     17  C   UNL     1     -13.212  17.216 -20.506  0.00  0.00    +0.000 A 
ENDBRANCH   9  10
ENDBRANCH   7   8
BRANCH   1  18
ATOM     18  O   UNL     1     -10.325  19.591 -23.308  0.00  0.00    +0.000 OA
BRANCH  18  19
ATOM     19  C   UNL     1     -11.016  20.673 -24.187  0.00  0.00    +0.000 C 
BRANCH  19  20
ATOM     20  C   UNL     1     -12.510  20.238 -23.612  0.00  0.00    +0.000 C 
ATOM     21  F   UNL     1     -12.469  18.912 -23.403  0.00  0.00    +0.000 F 
ATOM     22  F   UNL     1     -12.529  20.989 -22.464  0.00  0.00    +0.000 F 
ATOM     23  F   UNL     1     -13.412  20.728 -24.478  0.00  0.00    +0.000 F 
ENDBRANCH  19  20
BRANCH  19  24
ATOM     24  C   UNL     1     -11.091  19.587 -25.550  0.00  0.00    +0.000 C 
ATOM     25  C   UNL     1      -9.464  19.691 -25.759  0.00  0.00    +0.000 C 
BRANCH  24  26
ATOM     26  C   UNL     1     -11.476  20.756 -26.582  0.00  0.00    +0.000 C 
ATOM     27  O   UNL     1     -12.467  20.335 -27.260  0.00  0.00    +0.000 OA
BRANCH  26  28
ATOM     28  O   UNL     1     -10.557  21.475 -27.242  0.00  0.00    +0.000 OA
BRANCH  28  30
ATOM     29  C   UNL     1     -10.530  22.743 -28.848  0.00  0.00    +0.000 C 
ATOM     30  C   UNL     1     -10.808  21.907 -28.580  0.00  0.00    +0.000 C 
ENDBRANCH  28  30
ENDBRANCH  26  28
ENDBRANCH  24  26
ENDBRANCH  19  24
ENDBRANCH  18  19
ENDBRANCH   1  18
TORSDOF 9
ENDMDL
