MODEL 1
REMARK VINA RESULT:      -8.3      0.000      0.000
REMARK  Name = 
REMARK  6 active torsions:
REMARK  status: ('A' for Active; 'I' for Inactive)
REMARK    1  A    between atoms: O_2  and  C_3
REMARK    2  A    between atoms: C_5  and  C_6
REMARK    3  A    between atoms: C_6  and  O_7
REMARK    4  A    between atoms: O_7  and  C_8
REMARK    5  A    between atoms: C_14  and  C_15
REMARK    6  A    between atoms: C_16  and  C_17
REMARK                            x       y       z     vdW  Elec       q    Type
REMARK                         _______ _______ _______ _____ _____    ______ ____
ROOT
ATOM      1  C   UNL     1     -18.555  -5.418   7.559  0.00  0.00    +0.000 A 
ATOM      2  C   UNL     1     -19.243  -5.825   8.697  0.00  0.00    +0.000 A 
ATOM      3  C   UNL     1     -19.863  -4.907   9.538  0.00  0.00    +0.000 A 
ATOM      4  O   UNL     1     -19.811  -5.013  10.930  0.00  0.00    +0.000 OA
ATOM      5  C   UNL     1     -20.075  -3.632   9.025  0.00  0.00    +0.000 A 
ATOM      6  C   UNL     1     -19.397  -3.257   7.871  0.00  0.00    +0.000 A 
ATOM      7  C   UNL     1     -18.424  -4.059   7.290  0.00  0.00    +0.000 A 
ENDROOT
BRANCH   7   8
ATOM      8  C   UNL     1     -17.093  -3.561   6.923  0.00  0.00    +0.000 C 
ATOM      9  C   UNL     1     -16.826  -2.575   6.128  0.00  0.00    +0.000 C 
BRANCH   9  10
ATOM     10  C   UNL     1     -16.463  -1.209   6.543  0.00  0.00    +0.000 A 
ATOM     11  C   UNL     1     -17.315  -0.381   7.215  0.00  0.00    +0.000 A 
ATOM     12  C   UNL     1     -17.050   0.977   7.220  0.00  0.00    +0.000 A 
ATOM     13  O   UNL     1     -18.079   1.797   7.683  0.00  0.00    +0.000 OA
ATOM     14  C   UNL     1     -16.109   1.460   6.319  0.00  0.00    +0.000 A 
ATOM     15  C   UNL     1     -15.228   0.623   5.679  0.00  0.00    +0.000 A 
ATOM     16  O   UNL     1     -14.191   1.075   4.879  0.00  0.00    +0.000 OA
ATOM     17  C   UNL     1     -15.239  -0.694   6.127  0.00  0.00    +0.000 A 
ENDBRANCH   9  10
ENDBRANCH   7   8
BRANCH   1  18
ATOM     18  O   UNL     1     -17.811  -6.297   6.770  0.00  0.00    +0.000 OA
BRANCH  18  19
ATOM     19  C   UNL     1     -18.365  -6.751   5.533  0.00  0.00    +0.000 C 
BRANCH  19  22
ATOM     20  C   UNL     1     -19.660 -10.040   5.228  0.00  0.00    +0.000 C 
ATOM     21  O   UNL     1     -19.742  -8.520   5.215  0.00  0.00    +0.000 OA
ATOM     22  C   UNL     1     -18.349  -8.382   5.740  0.00  0.00    +0.000 C 
ATOM     23  C   UNL     1     -17.715  -8.689   4.191  0.00  0.00    +0.000 C 
ATOM     24  O   UNL     1     -16.594  -9.496   4.765  0.00  0.00    +0.000 OA
ATOM     25  C   UNL     1     -16.537 -10.590   3.984  0.00  0.00    +0.000 C 
ATOM     26  C   UNL     1     -16.162 -10.468   2.569  0.00  0.00    +0.000 C 
ATOM     27  C   UNL     1     -15.561 -11.543   4.650  0.00  0.00    +0.000 C 
ATOM     28  O   UNL     1     -17.768 -11.075   4.267  0.00  0.00    +0.000 OA
ATOM     29  C   UNL     1     -18.697 -10.008   3.805  0.00  0.00    +0.000 C 
BRANCH  20  31
ATOM     30  C   UNL     1     -18.614 -10.373   6.583  0.00  0.00    +0.000 C 
ATOM     31  O   UNL     1     -18.525 -10.223   6.238  0.00  0.00    +0.000 OA
ENDBRANCH  20  31
ENDBRANCH  19  22
ENDBRANCH  18  19
ENDBRANCH   1  18
TORSDOF 6
ENDMDL
MODEL 2
REMARK VINA RESULT:      -7.8     20.377     22.313
REMARK  Name = 
REMARK  6 active torsions:
REMARK  status: ('A' for Active; 'I' for Inactive)
REMARK    1  A    between atoms: O_2  and  C_3
REMARK    2  A    between atoms: C_5  and  C_6
REMARK    3  A    between atoms: C_6  and  O_7
REMARK    4  A    between atoms: O_7  and  C_8
REMARK    5  A    between atoms: C_14  and  C_15
REMARK    6  A    between atoms: C_16  and  C_17
REMARK                            x       y       z     vdW  Elec       q    Type
REMARK                         _______ _______ _______ _____ _____    ______ ____
ROOT
ATOM      1  C   UNL     1     -35.241  -5.195  -7.236  0.00  0.00    +0.000 A 
ATOM      2  C   UNL     1     -36.052  -5.362  -6.118  0.00  0.00    +0.000 A 
ATOM      3  C   UNL     1     -35.942  -4.528  -5.011  0.00  0.00    +0.000 A 
ATOM      4  O   UNL     1     -36.002  -5.012  -3.701  0.00  0.00    +0.000 OA
ATOM      5  C   UNL     1     -35.262  -3.329  -5.193  0.00  0.00    +0.000 A 
ATOM      6  C   UNL     1     -34.479  -3.176  -6.332  0.00  0.00    +0.000 A 
ATOM      7  C   UNL     1     -34.250  -4.218  -7.220  0.00  0.00    +0.000 A 
ENDROOT
BRANCH   7   8
ATOM      8  C   UNL     1     -32.909  -4.598  -7.678  0.00  0.00    +0.000 C 
ATOM      9  C   UNL     1     -31.783  -4.096  -7.283  0.00  0.00    +0.000 C 
BRANCH   9  10
ATOM     10  C   UNL     1     -30.867  -4.705  -6.303  0.00  0.00    +0.000 A 
ATOM     11  C   UNL     1     -31.273  -5.601  -5.356  0.00  0.00    +0.000 A 
ATOM     12  C   UNL     1     -30.459  -5.818  -4.259  0.00  0.00    +0.000 A 
ATOM     13  O   UNL     1     -31.035  -6.528  -3.205  0.00  0.00    +0.000 OA
ATOM     14  C   UNL     1     -29.425  -4.919  -4.028  0.00  0.00    +0.000 A 
ATOM     15  C   UNL     1     -28.996  -4.049  -5.000  0.00  0.00    +0.000 A 
ATOM     16  O   UNL     1     -27.885  -3.235  -4.857  0.00  0.00    +0.000 OA
ATOM     17  C   UNL     1     -29.551  -4.256  -6.259  0.00  0.00    +0.000 A 
ENDBRANCH   9  10
ENDBRANCH   7   8
BRANCH   1  18
ATOM     18  O   UNL     1     -35.233  -6.092  -8.305  0.00  0.00    +0.000 OA
BRANCH  18  19
ATOM     19  C   UNL     1     -36.240  -7.104  -8.364  0.00  0.00    +0.000 C 
BRANCH  19  22
ATOM     20  C   UNL     1     -35.102  -7.704 -11.670  0.00  0.00    +0.000 C 
ATOM     21  O   UNL     1     -34.939  -7.333 -10.203  0.00  0.00    +0.000 OA
ATOM     22  C   UNL     1     -36.418  -7.302  -9.986  0.00  0.00    +0.000 C 
ATOM     23  C   UNL     1     -36.459  -9.000  -9.892  0.00  0.00    +0.000 C 
ATOM     24  O   UNL     1     -37.755  -9.051 -10.641  0.00  0.00    +0.000 OA
ATOM     25  C   UNL     1     -37.581 -10.035 -11.540  0.00  0.00    +0.000 C 
ATOM     26  C   UNL     1     -37.408 -11.423 -11.091  0.00  0.00    +0.000 C 
ATOM     27  C   UNL     1     -38.782  -9.987 -12.467  0.00  0.00    +0.000 C 
ATOM     28  O   UNL     1     -36.566  -9.469 -12.232  0.00  0.00    +0.000 OA
ATOM     29  C   UNL     1     -35.477  -9.322 -11.228  0.00  0.00    +0.000 C 
BRANCH  20  31
ATOM     30  C   UNL     1     -36.585  -6.913 -12.129  0.00  0.00    +0.000 C 
ATOM     31  O   UNL     1     -36.534  -7.217 -11.896  0.00  0.00    +0.000 OA
ENDBRANCH  20  31
ENDBRANCH  19  22
ENDBRANCH  18  19
ENDBRANCH   1  18
TORSDOF 6
ENDMDL
MODEL 3
REMARK VINA RESULT:      -7.7     14.753     18.236
REMARK  Name = 
REMARK  6 active torsions:
REMARK  status: ('A' for Active; 'I' for Inactive)
REMARK    1  A    between atoms: O_2  and  C_3
REMARK    2  A    between atoms: C_5  and  C_6
REMARK    3  A    between atoms: C_6  and  O_7
REMARK    4  A    between atoms: O_7  and  C_8
REMARK    5  A    between atoms: C_14  and  C_15
REMARK    6  A    between atoms: C_16  and  C_17
REMARK                            x       y       z     vdW  Elec       q    Type
REMARK                         _______ _______ _______ _____ _____    ______ ____
ROOT
ATOM      1  C   UNL     1     -25.821   8.324  -4.579  0.00  0.00    +0.000 A 
ATOM      2  C   UNL     1     -26.487   8.854  -5.680  0.00  0.00    +0.000 A 
ATOM      3  C   UNL     1     -25.815   9.162  -6.857  0.00  0.00    +0.000 A 
ATOM      4  O   UNL     1     -26.077  10.326  -7.586  0.00  0.00    +0.000 OA
ATOM      5  C   UNL     1     -24.551   8.605  -7.021  0.00  0.00    +0.000 A 
ATOM      6  C   UNL     1     -23.916   8.058  -5.912  0.00  0.00    +0.000 A 
ATOM      7  C   UNL     1     -24.439   8.164  -4.631  0.00  0.00    +0.000 A 
ENDROOT
BRANCH   7   8
ATOM      8  C   UNL     1     -23.654   8.635  -3.484  0.00  0.00    +0.000 C 
ATOM      9  C   UNL     1     -22.656   9.458  -3.512  0.00  0.00    +0.000 C 
BRANCH   9  10
ATOM     10  C   UNL     1     -22.714  10.892  -3.179  0.00  0.00    +0.000 A 
ATOM     11  C   UNL     1     -22.887  11.871  -4.115  0.00  0.00    +0.000 A 
ATOM     12  C   UNL     1     -22.546  13.170  -3.784  0.00  0.00    +0.000 A 
ATOM     13  O   UNL     1     -22.486  14.073  -4.845  0.00  0.00    +0.000 OA
ATOM     14  C   UNL     1     -21.788  13.372  -2.637  0.00  0.00    +0.000 A 
ATOM     15  C   UNL     1     -21.654  12.395  -1.680  0.00  0.00    +0.000 A 
ATOM     16  O   UNL     1     -21.022  12.600  -0.465  0.00  0.00    +0.000 OA
ATOM     17  C   UNL     1     -22.462  11.277  -1.866  0.00  0.00    +0.000 A 
ENDBRANCH   9  10
ENDBRANCH   7   8
BRANCH   1  18
ATOM     18  O   UNL     1     -26.438   8.129  -3.343  0.00  0.00    +0.000 OA
BRANCH  18  19
ATOM     19  C   UNL     1     -27.067   6.873  -3.077  0.00  0.00    +0.000 C 
BRANCH  19  22
ATOM     20  C   UNL     1     -25.097   6.121  -0.224  0.00  0.00    +0.000 C 
ATOM     21  O   UNL     1     -26.048   6.967  -1.057  0.00  0.00    +0.000 OA
ATOM     22  C   UNL     1     -25.889   6.080  -2.249  0.00  0.00    +0.000 C 
ATOM     23  C   UNL     1     -26.964   4.948  -1.574  0.00  0.00    +0.000 C 
ATOM     24  O   UNL     1     -26.143   3.804  -2.082  0.00  0.00    +0.000 OA
ATOM     25  C   UNL     1     -26.067   2.958  -1.038  0.00  0.00    +0.000 C 
ATOM     26  C   UNL     1     -27.278   2.295  -0.537  0.00  0.00    +0.000 C 
ATOM     27  C   UNL     1     -25.068   1.885  -1.427  0.00  0.00    +0.000 C 
ATOM     28  O   UNL     1     -25.406   3.780  -0.191  0.00  0.00    +0.000 OA
ATOM     29  C   UNL     1     -26.324   4.936  -0.010  0.00  0.00    +0.000 C 
BRANCH  20  31
ATOM     30  C   UNL     1     -23.959   5.511  -1.396  0.00  0.00    +0.000 C 
ATOM     31  O   UNL     1     -24.332   5.420  -1.349  0.00  0.00    +0.000 OA
ENDBRANCH  20  31
ENDBRANCH  19  22
ENDBRANCH  18  19
ENDBRANCH   1  18
TORSDOF 6
ENDMDL
MODEL 4
REMARK VINA RESULT:      -7.6     20.020     21.869
REMARK  Name = 
REMARK  6 active torsions:
REMARK  status: ('A' for Active; 'I' for Inactive)
REMARK    1  A    between atoms: O_2  and  C_3
REMARK    2  A    between atoms: C_5  and  C_6
REMARK    3  A    between atoms: C_6  and  O_7
REMARK    4  A    between atoms: O_7  and  C_8
REMARK    5  A    between atoms: C_14  and  C_15
REMARK    6  A    between atoms: C_16  and  C_17
REMARK                            x       y       z     vdW  Elec       q    Type
REMARK                         _______ _______ _______ _____ _____    ______ ____
ROOT
ATOM      1  C   UNL     1     -35.198  -4.630  -6.880  0.00  0.00    +0.000 A 
ATOM      2  C   UNL     1     -35.974  -4.509  -5.732  0.00  0.00    +0.000 A 
ATOM      3  C   UNL     1     -35.674  -3.573  -4.748  0.00  0.00    +0.000 A 
ATOM      4  O   UNL     1     -35.755  -3.869  -3.385  0.00  0.00    +0.000 OA
ATOM      5  C   UNL     1     -34.810  -2.544  -5.104  0.00  0.00    +0.000 A 
ATOM      6  C   UNL     1     -34.064  -2.675  -6.271  0.00  0.00    +0.000 A 
ATOM      7  C   UNL     1     -34.056  -3.845  -7.017  0.00  0.00    +0.000 A 
ENDROOT
BRANCH   7   8
ATOM      8  C   UNL     1     -32.820  -4.508  -7.451  0.00  0.00    +0.000 C 
ATOM      9  C   UNL     1     -31.609  -4.167  -7.146  0.00  0.00    +0.000 C 
BRANCH   9  10
ATOM     10  C   UNL     1     -30.770  -4.802  -6.116  0.00  0.00    +0.000 A 
ATOM     11  C   UNL     1     -31.266  -5.644  -5.163  0.00  0.00    +0.000 A 
ATOM     12  C   UNL     1     -30.509  -5.880  -4.029  0.00  0.00    +0.000 A 
ATOM     13  O   UNL     1     -31.166  -6.523  -2.981  0.00  0.00    +0.000 OA
ATOM     14  C   UNL     1     -29.430  -5.040  -3.782  0.00  0.00    +0.000 A 
ATOM     15  C   UNL     1     -28.911  -4.226  -4.759  0.00  0.00    +0.000 A 
ATOM     16  O   UNL     1     -27.758  -3.477  -4.594  0.00  0.00    +0.000 OA
ATOM     17  C   UNL     1     -29.431  -4.433  -6.033  0.00  0.00    +0.000 A 
ENDBRANCH   9  10
ENDBRANCH   7   8
BRANCH   1  18
ATOM     18  O   UNL     1     -35.389  -5.643  -7.820  0.00  0.00    +0.000 OA
BRANCH  18  19
ATOM     19  C   UNL     1     -36.685  -6.233  -7.943  0.00  0.00    +0.000 C 
BRANCH  19  22
ATOM     20  C   UNL     1     -37.449  -9.398  -9.353  0.00  0.00    +0.000 C 
ATOM     21  O   UNL     1     -37.704  -8.186  -8.470  0.00  0.00    +0.000 OA
ATOM     22  C   UNL     1     -36.338  -7.636  -8.728  0.00  0.00    +0.000 C 
ATOM     23  C   UNL     1     -36.840  -7.049 -10.243  0.00  0.00    +0.000 C 
ATOM     24  O   UNL     1     -35.529  -7.414 -10.865  0.00  0.00    +0.000 OA
ATOM     25  C   UNL     1     -35.863  -8.005 -12.026  0.00  0.00    +0.000 C 
ATOM     26  C   UNL     1     -36.523  -7.229 -13.085  0.00  0.00    +0.000 C 
ATOM     27  C   UNL     1     -34.583  -8.587 -12.596  0.00  0.00    +0.000 C 
ATOM     28  O   UNL     1     -36.538  -9.054 -11.504  0.00  0.00    +0.000 OA
ATOM     29  C   UNL     1     -37.664  -8.431 -10.758  0.00  0.00    +0.000 C 
BRANCH  20  31
ATOM     30  C   UNL     1     -35.742  -9.690  -9.153  0.00  0.00    +0.000 C 
ATOM     31  O   UNL     1     -35.919  -9.402  -9.341  0.00  0.00    +0.000 OA
ENDBRANCH  20  31
ENDBRANCH  19  22
ENDBRANCH  18  19
ENDBRANCH   1  18
TORSDOF 6
ENDMDL
MODEL 5
REMARK VINA RESULT:      -7.6     19.400     21.522
REMARK  Name = 
REMARK  6 active torsions:
REMARK  status: ('A' for Active; 'I' for Inactive)
REMARK    1  A    between atoms: O_2  and  C_3
REMARK    2  A    between atoms: C_5  and  C_6
REMARK    3  A    between atoms: C_6  and  O_7
REMARK    4  A    between atoms: O_7  and  C_8
REMARK    5  A    between atoms: C_14  and  C_15
REMARK    6  A    between atoms: C_16  and  C_17
REMARK                            x       y       z     vdW  Elec       q    Type
REMARK                         _______ _______ _______ _____ _____    ______ ____
ROOT
ATOM      1  C   UNL     1     -34.547  -5.343  -4.523  0.00  0.00    +0.000 A 
ATOM      2  C   UNL     1     -34.987  -6.297  -5.435  0.00  0.00    +0.000 A 
ATOM      3  C   UNL     1     -34.959  -7.655  -5.136  0.00  0.00    +0.000 A 
ATOM      4  O   UNL     1     -34.561  -8.618  -6.067  0.00  0.00    +0.000 OA
ATOM      5  C   UNL     1     -34.817  -7.999  -3.796  0.00  0.00    +0.000 A 
ATOM      6  C   UNL     1     -34.402  -7.021  -2.899  0.00  0.00    +0.000 A 
ATOM      7  C   UNL     1     -34.001  -5.758  -3.312  0.00  0.00    +0.000 A 
ENDROOT
BRANCH   7   8
ATOM      8  C   UNL     1     -32.742  -5.139  -2.883  0.00  0.00    +0.000 C 
ATOM      9  C   UNL     1     -31.555  -5.645  -2.985  0.00  0.00    +0.000 C 
BRANCH   9  10
ATOM     10  C   UNL     1     -30.563  -5.310  -4.022  0.00  0.00    +0.000 A 
ATOM     11  C   UNL     1     -29.330  -4.797  -3.738  0.00  0.00    +0.000 A 
ATOM     12  C   UNL     1     -28.630  -4.160  -4.748  0.00  0.00    +0.000 A 
ATOM     13  O   UNL     1     -27.513  -3.429  -4.347  0.00  0.00    +0.000 OA
ATOM     14  C   UNL     1     -29.321  -3.823  -5.905  0.00  0.00    +0.000 A 
ATOM     15  C   UNL     1     -30.544  -4.376  -6.202  0.00  0.00    +0.000 A 
ATOM     16  O   UNL     1     -31.201  -4.171  -7.404  0.00  0.00    +0.000 OA
ATOM     17  C   UNL     1     -30.942  -5.406  -5.357  0.00  0.00    +0.000 A 
ENDBRANCH   9  10
ENDBRANCH   7   8
BRANCH   1  18
ATOM     18  O   UNL     1     -34.436  -3.988  -4.840  0.00  0.00    +0.000 OA
BRANCH  18  19
ATOM     19  C   UNL     1     -35.456  -3.091  -4.395  0.00  0.00    +0.000 C 
BRANCH  19  22
ATOM     20  C   UNL     1     -38.451  -3.367  -6.277  0.00  0.00    +0.000 C 
ATOM     21  O   UNL     1     -37.529  -3.664  -5.103  0.00  0.00    +0.000 OA
ATOM     22  C   UNL     1     -36.384  -2.948  -5.744  0.00  0.00    +0.000 C 
ATOM     23  C   UNL     1     -37.037  -1.448  -5.277  0.00  0.00    +0.000 C 
ATOM     24  O   UNL     1     -36.625  -0.819  -6.572  0.00  0.00    +0.000 OA
ATOM     25  C   UNL     1     -37.704  -0.114  -6.957  0.00  0.00    +0.000 C 
ATOM     26  C   UNL     1     -38.156   1.037  -6.164  0.00  0.00    +0.000 C 
ATOM     27  C   UNL     1     -37.420   0.368  -8.368  0.00  0.00    +0.000 C 
ATOM     28  O   UNL     1     -38.557  -1.155  -7.096  0.00  0.00    +0.000 OA
ATOM     29  C   UNL     1     -38.636  -1.747  -5.733  0.00  0.00    +0.000 C 
BRANCH  20  31
ATOM     30  C   UNL     1     -37.372  -3.358  -7.646  0.00  0.00    +0.000 C 
ATOM     31  O   UNL     1     -37.403  -3.100  -7.359  0.00  0.00    +0.000 OA
ENDBRANCH  20  31
ENDBRANCH  19  22
ENDBRANCH  18  19
ENDBRANCH   1  18
TORSDOF 6
ENDMDL
MODEL 6
REMARK VINA RESULT:      -7.5      5.053      7.796
REMARK  Name = 
REMARK  6 active torsions:
REMARK  status: ('A' for Active; 'I' for Inactive)
REMARK    1  A    between atoms: O_2  and  C_3
REMARK    2  A    between atoms: C_5  and  C_6
REMARK    3  A    between atoms: C_6  and  O_7
REMARK    4  A    between atoms: O_7  and  C_8
REMARK    5  A    between atoms: C_14  and  C_15
REMARK    6  A    between atoms: C_16  and  C_17
REMARK                            x       y       z     vdW  Elec       q    Type
REMARK                         _______ _______ _______ _____ _____    ______ ____
ROOT
ATOM      1  C   UNL     1     -22.097  -4.832   9.551  0.00  0.00    +0.000 A 
ATOM      2  C   UNL     1     -21.823  -6.018   8.878  0.00  0.00    +0.000 A 
ATOM      3  C   UNL     1     -20.582  -6.637   8.974  0.00  0.00    +0.000 A 
ATOM      4  O   UNL     1     -19.942  -7.206   7.870  0.00  0.00    +0.000 OA
ATOM      5  C   UNL     1     -19.761  -6.236  10.022  0.00  0.00    +0.000 A 
ATOM      6  C   UNL     1     -20.070  -5.061  10.698  0.00  0.00    +0.000 A 
ATOM      7  C   UNL     1     -21.086  -4.213  10.281  0.00  0.00    +0.000 A 
ENDROOT
BRANCH   7   8
ATOM      8  C   UNL     1     -20.897  -2.769  10.096  0.00  0.00    +0.000 C 
ATOM      9  C   UNL     1     -19.822  -2.174   9.690  0.00  0.00    +0.000 C 
BRANCH   9  10
ATOM     10  C   UNL     1     -19.576  -1.680   8.324  0.00  0.00    +0.000 A 
ATOM     11  C   UNL     1     -18.643  -0.728   8.030  0.00  0.00    +0.000 A 
ATOM     12  C   UNL     1     -18.742  -0.055   6.825  0.00  0.00    +0.000 A 
ATOM     13  O   UNL     1     -17.937   1.077   6.693  0.00  0.00    +0.000 OA
ATOM     14  C   UNL     1     -19.928  -0.169   6.111  0.00  0.00    +0.000 A 
ATOM     15  C   UNL     1     -20.843  -1.156   6.388  0.00  0.00    +0.000 A 
ATOM     16  O   UNL     1     -21.970  -1.388   5.616  0.00  0.00    +0.000 OA
ATOM     17  C   UNL     1     -20.416  -2.113   7.302  0.00  0.00    +0.000 A 
ENDBRANCH   9  10
ENDBRANCH   7   8
BRANCH   1  18
ATOM     18  O   UNL     1     -23.282  -4.116   9.371  0.00  0.00    +0.000 OA
BRANCH  18  19
ATOM     19  C   UNL     1     -23.565  -3.564   8.084  0.00  0.00    +0.000 C 
BRANCH  19  22
ATOM     20  C   UNL     1     -27.033  -4.116   8.591  0.00  0.00    +0.000 C 
ATOM     21  O   UNL     1     -25.638  -3.659   8.991  0.00  0.00    +0.000 OA
ATOM     22  C   UNL     1     -25.030  -4.233   7.752  0.00  0.00    +0.000 C 
ATOM     23  C   UNL     1     -25.566  -2.895   6.847  0.00  0.00    +0.000 C 
ATOM     24  O   UNL     1     -25.895  -3.767   5.676  0.00  0.00    +0.000 OA
ATOM     25  C   UNL     1     -27.107  -3.342   5.274  0.00  0.00    +0.000 C 
ATOM     26  C   UNL     1     -27.270  -1.987   4.730  0.00  0.00    +0.000 C 
ATOM     27  C   UNL     1     -27.584  -4.331   4.227  0.00  0.00    +0.000 C 
ATOM     28  O   UNL     1     -27.787  -3.652   6.402  0.00  0.00    +0.000 OA
ATOM     29  C   UNL     1     -27.139  -2.827   7.458  0.00  0.00    +0.000 C 
BRANCH  20  31
ATOM     30  C   UNL     1     -26.740  -5.589   7.706  0.00  0.00    +0.000 C 
ATOM     31  O   UNL     1     -26.662  -5.225   7.604  0.00  0.00    +0.000 OA
ENDBRANCH  20  31
ENDBRANCH  19  22
ENDBRANCH  18  19
ENDBRANCH   1  18
TORSDOF 6
ENDMDL
MODEL 7
REMARK VINA RESULT:      -7.5     20.826     22.769
REMARK  Name = 
REMARK  6 active torsions:
REMARK  status: ('A' for Active; 'I' for Inactive)
REMARK    1  A    between atoms: O_2  and  C_3
REMARK    2  A    between atoms: C_5  and  C_6
REMARK    3  A    between atoms: C_6  and  O_7
REMARK    4  A    between atoms: O_7  and  C_8
REMARK    5  A    between atoms: C_14  and  C_15
REMARK    6  A    between atoms: C_16  and  C_17
REMARK                            x       y       z     vdW  Elec       q    Type
REMARK                         _______ _______ _______ _____ _____    ______ ____
ROOT
ATOM      1  C   UNL     1     -35.117  -5.151  -7.147  0.00  0.00    +0.000 A 
ATOM      2  C   UNL     1     -35.923  -5.220  -6.014  0.00  0.00    +0.000 A 
ATOM      3  C   UNL     1     -35.808  -4.292  -4.985  0.00  0.00    +0.000 A 
ATOM      4  O   UNL     1     -35.860  -4.659  -3.638  0.00  0.00    +0.000 OA
ATOM      5  C   UNL     1     -35.130  -3.114  -5.276  0.00  0.00    +0.000 A 
ATOM      6  C   UNL     1     -34.353  -3.060  -6.428  0.00  0.00    +0.000 A 
ATOM      7  C   UNL     1     -34.128  -4.176  -7.222  0.00  0.00    +0.000 A 
ENDROOT
BRANCH   7   8
ATOM      8  C   UNL     1     -32.788  -4.594  -7.652  0.00  0.00    +0.000 C 
ATOM      9  C   UNL     1     -31.657  -4.112  -7.245  0.00  0.00    +0.000 C 
BRANCH   9  10
ATOM     10  C   UNL     1     -30.772  -4.727  -6.240  0.00  0.00    +0.000 A 
ATOM     11  C   UNL     1     -31.212  -5.611  -5.298  0.00  0.00    +0.000 A 
ATOM     12  C   UNL     1     -30.426  -5.832  -4.181  0.00  0.00    +0.000 A 
ATOM     13  O   UNL     1     -31.036  -6.527  -3.136  0.00  0.00    +0.000 OA
ATOM     14  C   UNL     1     -29.385  -4.947  -3.932  0.00  0.00    +0.000 A 
ATOM     15  C   UNL     1     -28.922  -4.089  -4.900  0.00  0.00    +0.000 A 
ATOM     16  O   UNL     1     -27.803  -3.289  -4.737  0.00  0.00    +0.000 OA
ATOM     17  C   UNL     1     -29.451  -4.296  -6.170  0.00  0.00    +0.000 A 
ENDBRANCH   9  10
ENDBRANCH   7   8
BRANCH   1  18
ATOM     18  O   UNL     1     -35.113  -6.139  -8.133  0.00  0.00    +0.000 OA
BRANCH  18  19
ATOM     19  C   UNL     1     -36.214  -7.048  -8.204  0.00  0.00    +0.000 C 
BRANCH  19  22
ATOM     20  C   UNL     1     -37.500  -8.296 -11.266  0.00  0.00    +0.000 C 
ATOM     21  O   UNL     1     -36.950  -8.415  -9.852  0.00  0.00    +0.000 OA
ATOM     22  C   UNL     1     -36.616  -6.959  -9.795  0.00  0.00    +0.000 C 
ATOM     23  C   UNL     1     -38.245  -6.579  -9.482  0.00  0.00    +0.000 C 
ATOM     24  O   UNL     1     -38.169  -5.360 -10.347  0.00  0.00    +0.000 OA
ATOM     25  C   UNL     1     -39.293  -5.405 -11.085  0.00  0.00    +0.000 C 
ATOM     26  C   UNL     1     -40.606  -5.268 -10.440  0.00  0.00    +0.000 C 
ATOM     27  C   UNL     1     -39.165  -4.311 -12.129  0.00  0.00    +0.000 C 
ATOM     28  O   UNL     1     -39.031  -6.561 -11.737  0.00  0.00    +0.000 OA
ATOM     29  C   UNL     1     -38.937  -7.578 -10.655  0.00  0.00    +0.000 C 
BRANCH  20  31
ATOM     30  C   UNL     1     -36.528  -7.035 -11.976  0.00  0.00    +0.000 C 
ATOM     31  O   UNL     1     -36.799  -7.007 -11.702  0.00  0.00    +0.000 OA
ENDBRANCH  20  31
ENDBRANCH  19  22
ENDBRANCH  18  19
ENDBRANCH   1  18
TORSDOF 6
ENDMDL
MODEL 8
REMARK VINA RESULT:      -7.5     17.908     21.345
REMARK  Name = 
REMARK  6 active torsions:
REMARK  status: ('A' for Active; 'I' for Inactive)
REMARK    1  A    between atoms: O_2  and  C_3
REMARK    2  A    between atoms: C_5  and  C_6
REMARK    3  A    between atoms: C_6  and  O_7
REMARK    4  A    between atoms: O_7  and  C_8
REMARK    5  A    between atoms: C_14  and  C_15
REMARK    6  A    between atoms: C_16  and  C_17
REMARK                            x       y       z     vdW  Elec       q    Type
REMARK                         _______ _______ _______ _____ _____    ______ ____
ROOT
ATOM      1  C   UNL     1     -25.153   9.479  -6.245  0.00  0.00    +0.000 A 
ATOM      2  C   UNL     1     -25.517  10.822  -6.260  0.00  0.00    +0.000 A 
ATOM      3  C   UNL     1     -24.958  11.734  -5.372  0.00  0.00    +0.000 A 
ATOM      4  O   UNL     1     -25.717  12.722  -4.738  0.00  0.00    +0.000 OA
ATOM      5  C   UNL     1     -23.791  11.345  -4.723  0.00  0.00    +0.000 A 
ATOM      6  C   UNL     1     -23.435  10.001  -4.746  0.00  0.00    +0.000 A 
ATOM      7  C   UNL     1     -24.264   9.023  -5.277  0.00  0.00    +0.000 A 
ENDROOT
BRANCH   7   8
ATOM      8  C   UNL     1     -24.611   7.793  -4.556  0.00  0.00    +0.000 C 
ATOM      9  C   UNL     1     -23.802   7.020  -3.905  0.00  0.00    +0.000 C 
BRANCH   9  10
ATOM     10  C   UNL     1     -23.618   7.002  -2.444  0.00  0.00    +0.000 A 
ATOM     11  C   UNL     1     -22.928   7.965  -1.766  0.00  0.00    +0.000 A 
ATOM     12  C   UNL     1     -22.476   7.680  -0.489  0.00  0.00    +0.000 A 
ATOM     13  O   UNL     1     -21.559   8.583   0.048  0.00  0.00    +0.000 OA
ATOM     14  C   UNL     1     -22.493   6.354  -0.074  0.00  0.00    +0.000 A 
ATOM     15  C   UNL     1     -23.224   5.400  -0.740  0.00  0.00    +0.000 A 
ATOM     16  O   UNL     1     -23.376   4.101  -0.283  0.00  0.00    +0.000 OA
ATOM     17  C   UNL     1     -24.063   5.891  -1.734  0.00  0.00    +0.000 A 
ENDBRANCH   9  10
ENDBRANCH   7   8
BRANCH   1  18
ATOM     18  O   UNL     1     -25.789   8.515  -7.029  0.00  0.00    +0.000 OA
BRANCH  18  19
ATOM     19  C   UNL     1     -25.649   8.580  -8.450  0.00  0.00    +0.000 C 
BRANCH  19  22
ATOM     20  C   UNL     1     -28.096  10.258 -10.396  0.00  0.00    +0.000 C 
ATOM     21  O   UNL     1     -26.704  10.041  -9.823  0.00  0.00    +0.000 OA
ATOM     22  C   UNL     1     -27.181   8.951  -8.918  0.00  0.00    +0.000 C 
ATOM     23  C   UNL     1     -27.177   7.848 -10.213  0.00  0.00    +0.000 C 
ATOM     24  O   UNL     1     -28.434   7.201  -9.720  0.00  0.00    +0.000 OA
ATOM     25  C   UNL     1     -29.191   7.061 -10.823  0.00  0.00    +0.000 C 
ATOM     26  C   UNL     1     -28.762   6.162 -11.903  0.00  0.00    +0.000 C 
ATOM     27  C   UNL     1     -30.560   6.608 -10.349  0.00  0.00    +0.000 C 
ATOM     28  O   UNL     1     -29.325   8.374 -11.116  0.00  0.00    +0.000 OA
ATOM     29  C   UNL     1     -27.931   8.840 -11.354  0.00  0.00    +0.000 C 
BRANCH  20  31
ATOM     30  C   UNL     1     -29.132   9.888  -9.043  0.00  0.00    +0.000 C 
ATOM     31  O   UNL     1     -28.931   9.646  -9.269  0.00  0.00    +0.000 OA
ENDBRANCH  20  31
ENDBRANCH  19  22
ENDBRANCH  18  19
ENDBRANCH   1  18
TORSDOF 6
ENDMDL
MODEL 9
REMARK VINA RESULT:      -7.5     17.747     21.484
REMARK  Name = 
REMARK  6 active torsions:
REMARK  status: ('A' for Active; 'I' for Inactive)
REMARK    1  A    between atoms: O_2  and  C_3
REMARK    2  A    between atoms: C_5  and  C_6
REMARK    3  A    between atoms: C_6  and  O_7
REMARK    4  A    between atoms: O_7  and  C_8
REMARK    5  A    between atoms: C_14  and  C_15
REMARK    6  A    between atoms: C_16  and  C_17
REMARK                            x       y       z     vdW  Elec       q    Type
REMARK                         _______ _______ _______ _____ _____    ______ ____
ROOT
ATOM      1  C   UNL     1     -25.409   9.907  -6.528  0.00  0.00    +0.000 A 
ATOM      2  C   UNL     1     -25.303  11.272  -6.275  0.00  0.00    +0.000 A 
ATOM      3  C   UNL     1     -26.029  12.204  -7.006  0.00  0.00    +0.000 A 
ATOM      4  O   UNL     1     -25.474  13.410  -7.443  0.00  0.00    +0.000 OA
ATOM      5  C   UNL     1     -27.109  11.723  -7.740  0.00  0.00    +0.000 A 
ATOM      6  C   UNL     1     -27.207  10.352  -7.957  0.00  0.00    +0.000 A 
ATOM      7  C   UNL     1     -26.205   9.469  -7.582  0.00  0.00    +0.000 A 
ENDROOT
BRANCH   7   8
ATOM      8  C   UNL     1     -25.640   8.468  -8.494  0.00  0.00    +0.000 C 
ATOM      9  C   UNL     1     -26.182   7.347  -8.848  0.00  0.00    +0.000 C 
BRANCH   9  10
ATOM     10  C   UNL     1     -26.886   7.096 -10.117  0.00  0.00    +0.000 A 
ATOM     11  C   UNL     1     -27.321   8.093 -10.941  0.00  0.00    +0.000 A 
ATOM     12  C   UNL     1     -28.289   7.797 -11.885  0.00  0.00    +0.000 A 
ATOM     13  O   UNL     1     -28.886   8.893 -12.509  0.00  0.00    +0.000 OA
ATOM     14  C   UNL     1     -28.971   6.593 -11.762  0.00  0.00    +0.000 A 
ATOM     15  C   UNL     1     -28.503   5.579 -10.962  0.00  0.00    +0.000 A 
ATOM     16  O   UNL     1     -29.076   4.319 -10.915  0.00  0.00    +0.000 OA
ATOM     17  C   UNL     1     -27.233   5.786 -10.434  0.00  0.00    +0.000 A 
ENDBRANCH   9  10
ENDBRANCH   7   8
BRANCH   1  18
ATOM     18  O   UNL     1     -24.597   8.957  -5.906  0.00  0.00    +0.000 OA
BRANCH  18  19
ATOM     19  C   UNL     1     -25.151   8.157  -4.860  0.00  0.00    +0.000 C 
BRANCH  19  22
ATOM     20  C   UNL     1     -24.122   9.479  -1.732  0.00  0.00    +0.000 C 
ATOM     21  O   UNL     1     -25.022   9.374  -2.955  0.00  0.00    +0.000 OA
ATOM     22  C   UNL     1     -24.087   8.427  -3.636  0.00  0.00    +0.000 C 
ATOM     23  C   UNL     1     -24.670   7.141  -2.688  0.00  0.00    +0.000 C 
ATOM     24  O   UNL     1     -23.298   6.556  -2.563  0.00  0.00    +0.000 OA
ATOM     25  C   UNL     1     -23.189   6.237  -1.261  0.00  0.00    +0.000 C 
ATOM     26  C   UNL     1     -24.043   5.191  -0.683  0.00  0.00    +0.000 C 
ATOM     27  C   UNL     1     -21.741   5.841  -1.036  0.00  0.00    +0.000 C 
ATOM     28  O   UNL     1     -23.304   7.489  -0.761  0.00  0.00    +0.000 OA
ATOM     29  C   UNL     1     -24.654   7.935  -1.197  0.00  0.00    +0.000 C 
BRANCH  20  31
ATOM     30  C   UNL     1     -22.520   9.300  -2.396  0.00  0.00    +0.000 C 
ATOM     31  O   UNL     1     -22.797   9.033  -2.355  0.00  0.00    +0.000 OA
ENDBRANCH  20  31
ENDBRANCH  19  22
ENDBRANCH  18  19
ENDBRANCH   1  18
TORSDOF 6
ENDMDL
MODEL 10
REMARK VINA RESULT:      -7.5     21.185     24.199
REMARK  Name = 
REMARK  6 active torsions:
REMARK  status: ('A' for Active; 'I' for Inactive)
REMARK    1  A    between atoms: O_2  and  C_3
REMARK    2  A    between atoms: C_5  and  C_6
REMARK    3  A    between atoms: C_6  and  O_7
REMARK    4  A    between atoms: O_7  and  C_8
REMARK    5  A    between atoms: C_14  and  C_15
REMARK    6  A    between atoms: C_16  and  C_17
REMARK                            x       y       z     vdW  Elec       q    Type
REMARK                         _______ _______ _______ _____ _____    ______ ____
ROOT
ATOM      1  C   UNL     1     -36.289  -6.065  -8.283  0.00  0.00    +0.000 A 
ATOM      2  C   UNL     1     -37.270  -5.099  -8.084  0.00  0.00    +0.000 A 
ATOM      3  C   UNL     1     -38.510  -5.184  -8.708  0.00  0.00    +0.000 A 
ATOM      4  O   UNL     1     -39.148  -4.070  -9.260  0.00  0.00    +0.000 OA
ATOM      5  C   UNL     1     -38.859  -6.420  -9.241  0.00  0.00    +0.000 A 
ATOM      6  C   UNL     1     -37.866  -7.379  -9.405  0.00  0.00    +0.000 A 
ATOM      7  C   UNL     1     -36.525  -7.102  -9.180  0.00  0.00    +0.000 A 
ENDROOT
BRANCH   7   8
ATOM      8  C   UNL     1     -35.469  -7.421 -10.148  0.00  0.00    +0.000 C 
ATOM      9  C   UNL     1     -35.134  -8.597 -10.572  0.00  0.00    +0.000 C 
BRANCH   9  10
ATOM     10  C   UNL     1     -35.536  -9.195 -11.857  0.00  0.00    +0.000 A 
ATOM     11  C   UNL     1     -35.161  -8.687 -13.067  0.00  0.00    +0.000 A 
ATOM     12  C   UNL     1     -35.878  -9.057 -14.191  0.00  0.00    +0.000 A 
ATOM     13  O   UNL     1     -35.630  -8.312 -15.344  0.00  0.00    +0.000 OA
ATOM     14  C   UNL     1     -37.101  -9.689 -14.004  0.00  0.00    +0.000 A 
ATOM     15  C   UNL     1     -37.452 -10.234 -12.792  0.00  0.00    +0.000 A 
ATOM     16  O   UNL     1     -38.599 -10.987 -12.600  0.00  0.00    +0.000 OA
ATOM     17  C   UNL     1     -36.437 -10.255 -11.842  0.00  0.00    +0.000 A 
ENDBRANCH   9  10
ENDBRANCH   7   8
BRANCH   1  18
ATOM     18  O   UNL     1     -34.992  -5.940  -7.780  0.00  0.00    +0.000 OA
BRANCH  18  19
ATOM     19  C   UNL     1     -34.810  -5.803  -6.369  0.00  0.00    +0.000 C 
BRANCH  19  22
ATOM     20  C   UNL     1     -32.510  -3.102  -6.353  0.00  0.00    +0.000 C 
ATOM     21  O   UNL     1     -33.856  -3.763  -6.609  0.00  0.00    +0.000 OA
ATOM     22  C   UNL     1     -33.316  -5.121  -6.292  0.00  0.00    +0.000 C 
ATOM     23  C   UNL     1     -33.423  -4.795  -4.626  0.00  0.00    +0.000 C 
ATOM     24  O   UNL     1     -32.136  -5.511  -4.362  0.00  0.00    +0.000 OA
ATOM     25  C   UNL     1     -31.465  -4.695  -3.529  0.00  0.00    +0.000 C 
ATOM     26  C   UNL     1     -31.979  -4.435  -2.178  0.00  0.00    +0.000 C 
ATOM     27  C   UNL     1     -30.067  -5.269  -3.400  0.00  0.00    +0.000 C 
ATOM     28  O   UNL     1     -31.348  -3.641  -4.370  0.00  0.00    +0.000 OA
ATOM     29  C   UNL     1     -32.753  -3.244  -4.658  0.00  0.00    +0.000 C 
BRANCH  20  31
ATOM     30  C   UNL     1     -31.361  -4.319  -6.838  0.00  0.00    +0.000 C 
ATOM     31  O   UNL     1     -31.595  -4.315  -6.530  0.00  0.00    +0.000 OA
ENDBRANCH  20  31
ENDBRANCH  19  22
ENDBRANCH  18  19
ENDBRANCH   1  18
TORSDOF 6
ENDMDL
