MODEL 1
REMARK VINA RESULT:      -6.7      0.000      0.000
REMARK  Name = 
REMARK  6 active torsions:
REMARK  status: ('A' for Active; 'I' for Inactive)
REMARK    1  A    between atoms: O_2  and  C_3
REMARK    2  A    between atoms: C_6  and  C_7
REMARK    3  A    between atoms: C_8  and  C_9
REMARK    4  A    between atoms: C_11  and  O_12
REMARK    5  A    between atoms: C_15  and  O_16
REMARK    6  A    between atoms: C_19  and  O_20
REMARK                            x       y       z     vdW  Elec       q    Type
REMARK                         _______ _______ _______ _____ _____    ______ ____
ROOT
ATOM      1  C   UNL     1     -17.659  -4.102   7.610  0.00  0.00    +0.000 C 
ATOM      2  C   UNL     1     -17.616  -3.185   6.679  0.00  0.00    +0.000 C 
ENDROOT
BRANCH   1   6
ATOM      3  C   UNL     1     -19.898  -6.999   9.495  0.00  0.00    +0.000 A 
ATOM      4  C   UNL     1     -20.382  -5.697   9.533  0.00  0.00    +0.000 A 
ATOM      5  C   UNL     1     -19.554  -4.736   8.966  0.00  0.00    +0.000 A 
ATOM      6  C   UNL     1     -18.790  -5.005   7.837  0.00  0.00    +0.000 A 
ATOM      7  C   UNL     1     -18.648  -6.354   7.530  0.00  0.00    +0.000 A 
ATOM      8  C   UNL     1     -19.194  -7.337   8.347  0.00  0.00    +0.000 A 
BRANCH   3  10
ATOM      9  C   UNL     1     -20.426  -9.299   9.964  0.00  0.00    +0.000 C 
ATOM     10  O   UNL     1     -20.320  -7.968  10.401  0.00  0.00    +0.000 OA
ENDBRANCH   3  10
BRANCH   7  11
ATOM     11  O   UNL     1     -17.947  -6.659   6.380  0.00  0.00    +0.000 OA
ATOM     12  C   UNL     1     -18.541  -7.507   5.422  0.00  0.00    +0.000 C 
ENDBRANCH   7  11
ENDBRANCH   1   6
BRANCH   2  13
ATOM     13  C   UNL     1     -17.251  -1.783   6.928  0.00  0.00    +0.000 A 
ATOM     14  C   UNL     1     -16.240  -1.273   6.122  0.00  0.00    +0.000 A 
ATOM     15  C   UNL     1     -16.251   0.024   5.643  0.00  0.00    +0.000 A 
ATOM     16  C   UNL     1     -16.965   0.944   6.399  0.00  0.00    +0.000 A 
ATOM     17  C   UNL     1     -18.020   0.491   7.178  0.00  0.00    +0.000 A 
ATOM     18  C   UNL     1     -18.252  -0.877   7.261  0.00  0.00    +0.000 A 
BRANCH  15  19
ATOM     19  O   UNL     1     -15.122   0.461   4.943  0.00  0.00    +0.000 OA
ATOM     20  C   UNL     1     -14.353   1.467   5.545  0.00  0.00    +0.000 C 
ENDBRANCH  15  19
BRANCH  17  21
ATOM     21  O   UNL     1     -19.022   1.427   7.445  0.00  0.00    +0.000 OA
ATOM     22  C   UNL     1     -19.436   1.725   8.768  0.00  0.00    +0.000 C 
ENDBRANCH  17  21
ENDBRANCH   2  13
TORSDOF 6
ENDMDL
MODEL 2
REMARK VINA RESULT:      -6.3      2.571      4.945
REMARK  Name = 
REMARK  6 active torsions:
REMARK  status: ('A' for Active; 'I' for Inactive)
REMARK    1  A    between atoms: O_2  and  C_3
REMARK    2  A    between atoms: C_6  and  C_7
REMARK    3  A    between atoms: C_8  and  C_9
REMARK    4  A    between atoms: C_11  and  O_12
REMARK    5  A    between atoms: C_15  and  O_16
REMARK    6  A    between atoms: C_19  and  O_20
REMARK                            x       y       z     vdW  Elec       q    Type
REMARK                         _______ _______ _______ _____ _____    ______ ____
ROOT
ATOM      1  C   UNL     1     -16.616  -5.075   5.188  0.00  0.00    +0.000 C 
ATOM      2  C   UNL     1     -17.712  -4.585   5.705  0.00  0.00    +0.000 C 
ENDROOT
BRANCH   1   6
ATOM      3  C   UNL     1     -17.092  -8.667   3.231  0.00  0.00    +0.000 A 
ATOM      4  C   UNL     1     -15.878  -8.011   3.068  0.00  0.00    +0.000 A 
ATOM      5  C   UNL     1     -15.790  -6.761   3.668  0.00  0.00    +0.000 A 
ATOM      6  C   UNL     1     -16.400  -6.492   4.888  0.00  0.00    +0.000 A 
ATOM      7  C   UNL     1     -17.358  -7.419   5.284  0.00  0.00    +0.000 A 
ATOM      8  C   UNL     1     -17.700  -8.491   4.467  0.00  0.00    +0.000 A 
BRANCH   3  10
ATOM      9  C   UNL     1     -16.660 -10.704   2.026  0.00  0.00    +0.000 C 
ATOM     10  O   UNL     1     -17.527  -9.643   2.339  0.00  0.00    +0.000 OA
ENDBRANCH   3  10
BRANCH   7  11
ATOM     11  O   UNL     1     -17.942  -7.220   6.519  0.00  0.00    +0.000 OA
ATOM     12  C   UNL     1     -19.161  -7.866   6.811  0.00  0.00    +0.000 C 
ENDBRANCH   7  11
ENDBRANCH   1   6
BRANCH   2  13
ATOM     13  C   UNL     1     -17.738  -3.691   6.873  0.00  0.00    +0.000 A 
ATOM     14  C   UNL     1     -17.754  -2.331   6.587  0.00  0.00    +0.000 A 
ATOM     15  C   UNL     1     -18.488  -1.423   7.328  0.00  0.00    +0.000 A 
ATOM     16  C   UNL     1     -18.751  -1.784   8.642  0.00  0.00    +0.000 A 
ATOM     17  C   UNL     1     -18.800  -3.133   8.965  0.00  0.00    +0.000 A 
ATOM     18  C   UNL     1     -18.474  -4.068   7.991  0.00  0.00    +0.000 A 
BRANCH  15  19
ATOM     19  O   UNL     1     -18.331  -0.067   7.023  0.00  0.00    +0.000 OA
ATOM     20  C   UNL     1     -19.263   0.820   7.579  0.00  0.00    +0.000 C 
ENDBRANCH  15  19
BRANCH  17  21
ATOM     21  O   UNL     1     -19.590  -3.463  10.070  0.00  0.00    +0.000 OA
ATOM     22  C   UNL     1     -20.954  -3.084  10.154  0.00  0.00    +0.000 C 
ENDBRANCH  17  21
ENDBRANCH   2  13
TORSDOF 6
ENDMDL
MODEL 3
REMARK VINA RESULT:      -6.1     20.004     22.583
REMARK  Name = 
REMARK  6 active torsions:
REMARK  status: ('A' for Active; 'I' for Inactive)
REMARK    1  A    between atoms: O_2  and  C_3
REMARK    2  A    between atoms: C_6  and  C_7
REMARK    3  A    between atoms: C_8  and  C_9
REMARK    4  A    between atoms: C_11  and  O_12
REMARK    5  A    between atoms: C_15  and  O_16
REMARK    6  A    between atoms: C_19  and  O_20
REMARK                            x       y       z     vdW  Elec       q    Type
REMARK                         _______ _______ _______ _____ _____    ______ ____
ROOT
ATOM      1  C   UNL     1     -25.639   8.131  -9.284  0.00  0.00    +0.000 C 
ATOM      2  C   UNL     1     -26.425   7.134  -9.598  0.00  0.00    +0.000 C 
ENDROOT
BRANCH   1   6
ATOM      3  C   UNL     1     -25.417   8.105  -5.172  0.00  0.00    +0.000 A 
ATOM      4  C   UNL     1     -24.245   8.371  -5.870  0.00  0.00    +0.000 A 
ATOM      5  C   UNL     1     -24.341   8.280  -7.253  0.00  0.00    +0.000 A 
ATOM      6  C   UNL     1     -25.486   8.676  -7.934  0.00  0.00    +0.000 A 
ATOM      7  C   UNL     1     -26.617   8.836  -7.140  0.00  0.00    +0.000 A 
ATOM      8  C   UNL     1     -26.583   8.554  -5.779  0.00  0.00    +0.000 A 
BRANCH   3  10
ATOM      9  C   UNL     1     -24.341   8.075  -3.021  0.00  0.00    +0.000 C 
ATOM     10  O   UNL     1     -25.404   7.676  -3.848  0.00  0.00    +0.000 OA
ENDBRANCH   3  10
BRANCH   7  11
ATOM     11  O   UNL     1     -27.759   9.288  -7.769  0.00  0.00    +0.000 OA
ATOM     12  C   UNL     1     -29.017   8.960  -7.221  0.00  0.00    +0.000 C 
ENDBRANCH   7  11
ENDBRANCH   1   6
BRANCH   2  13
ATOM     13  C   UNL     1     -27.393   7.172 -10.705  0.00  0.00    +0.000 A 
ATOM     14  C   UNL     1     -28.442   6.264 -10.616  0.00  0.00    +0.000 A 
ATOM     15  C   UNL     1     -29.730   6.575 -11.012  0.00  0.00    +0.000 A 
ATOM     16  C   UNL     1     -29.847   7.566 -11.976  0.00  0.00    +0.000 A 
ATOM     17  C   UNL     1     -28.851   8.528 -12.066  0.00  0.00    +0.000 A 
ATOM     18  C   UNL     1     -27.722   8.400 -11.267  0.00  0.00    +0.000 A 
BRANCH  15  19
ATOM     19  O   UNL     1     -30.675   5.544 -10.989  0.00  0.00    +0.000 OA
ATOM     20  C   UNL     1     -31.308   5.290  -9.764  0.00  0.00    +0.000 C 
ENDBRANCH  15  19
BRANCH  17  21
ATOM     21  O   UNL     1     -29.245   9.760 -12.596  0.00  0.00    +0.000 OA
ATOM     22  C   UNL     1     -28.584  10.967 -12.254  0.00  0.00    +0.000 C 
ENDBRANCH  17  21
ENDBRANCH   2  13
TORSDOF 6
ENDMDL
MODEL 4
REMARK VINA RESULT:      -5.8      2.355      3.367
REMARK  Name = 
REMARK  6 active torsions:
REMARK  status: ('A' for Active; 'I' for Inactive)
REMARK    1  A    between atoms: O_2  and  C_3
REMARK    2  A    between atoms: C_6  and  C_7
REMARK    3  A    between atoms: C_8  and  C_9
REMARK    4  A    between atoms: C_11  and  O_12
REMARK    5  A    between atoms: C_15  and  O_16
REMARK    6  A    between atoms: C_19  and  O_20
REMARK                            x       y       z     vdW  Elec       q    Type
REMARK                         _______ _______ _______ _____ _____    ______ ____
ROOT
ATOM      1  C   UNL     1     -17.196  -5.055   5.979  0.00  0.00    +0.000 C 
ATOM      2  C   UNL     1     -17.714  -3.858   5.880  0.00  0.00    +0.000 C 
ENDROOT
BRANCH   1   6
ATOM      3  C   UNL     1     -18.011  -9.091   5.991  0.00  0.00    +0.000 A 
ATOM      4  C   UNL     1     -18.912  -8.259   6.645  0.00  0.00    +0.000 A 
ATOM      5  C   UNL     1     -18.555  -6.918   6.697  0.00  0.00    +0.000 A 
ATOM      6  C   UNL     1     -17.899  -6.295   5.642  0.00  0.00    +0.000 A 
ATOM      7  C   UNL     1     -17.334  -7.157   4.709  0.00  0.00    +0.000 A 
ATOM      8  C   UNL     1     -17.389  -8.536   4.881  0.00  0.00    +0.000 A 
BRANCH   3  10
ATOM      9  C   UNL     1     -17.001 -11.232   5.561  0.00  0.00    +0.000 C 
ATOM     10  O   UNL     1     -17.945 -10.456   6.255  0.00  0.00    +0.000 OA
ENDBRANCH   3  10
BRANCH   7  11
ATOM     11  O   UNL     1     -16.727  -6.577   3.613  0.00  0.00    +0.000 OA
ATOM     12  C   UNL     1     -15.372  -6.865   3.349  0.00  0.00    +0.000 C 
ENDBRANCH   7  11
ENDBRANCH   1   6
BRANCH   2  13
ATOM     13  C   UNL     1     -17.683  -2.861   6.961  0.00  0.00    +0.000 A 
ATOM     14  C   UNL     1     -17.120  -1.634   6.629  0.00  0.00    +0.000 A 
ATOM     15  C   UNL     1     -17.616  -0.434   7.106  0.00  0.00    +0.000 A 
ATOM     16  C   UNL     1     -18.302  -0.497   8.311  0.00  0.00    +0.000 A 
ATOM     17  C   UNL     1     -18.927  -1.685   8.660  0.00  0.00    +0.000 A 
ATOM     18  C   UNL     1     -18.751  -2.799   7.849  0.00  0.00    +0.000 A 
BRANCH  15  19
ATOM     19  O   UNL     1     -16.895   0.725   6.803  0.00  0.00    +0.000 OA
ATOM     20  C   UNL     1     -15.523   0.713   7.090  0.00  0.00    +0.000 C 
ENDBRANCH  15  19
BRANCH  17  21
ATOM     21  O   UNL     1     -20.025  -1.563   9.518  0.00  0.00    +0.000 OA
ATOM     22  C   UNL     1     -20.687  -2.698  10.051  0.00  0.00    +0.000 C 
ENDBRANCH  17  21
ENDBRANCH   2  13
TORSDOF 6
ENDMDL
MODEL 5
REMARK VINA RESULT:      -5.7     19.528     22.006
REMARK  Name = 
REMARK  6 active torsions:
REMARK  status: ('A' for Active; 'I' for Inactive)
REMARK    1  A    between atoms: O_2  and  C_3
REMARK    2  A    between atoms: C_6  and  C_7
REMARK    3  A    between atoms: C_8  and  C_9
REMARK    4  A    between atoms: C_11  and  O_12
REMARK    5  A    between atoms: C_15  and  O_16
REMARK    6  A    between atoms: C_19  and  O_20
REMARK                            x       y       z     vdW  Elec       q    Type
REMARK                         _______ _______ _______ _____ _____    ______ ____
ROOT
ATOM      1  C   UNL     1     -26.270   7.435  -9.534  0.00  0.00    +0.000 C 
ATOM      2  C   UNL     1     -25.610   8.257  -8.759  0.00  0.00    +0.000 C 
ENDROOT
BRANCH   1   6
ATOM      3  C   UNL     1     -30.004   8.714 -10.707  0.00  0.00    +0.000 A 
ATOM      4  C   UNL     1     -28.948   9.602 -10.872  0.00  0.00    +0.000 A 
ATOM      5  C   UNL     1     -27.723   9.169 -10.380  0.00  0.00    +0.000 A 
ATOM      6  C   UNL     1     -27.335   7.836 -10.455  0.00  0.00    +0.000 A 
ATOM      7  C   UNL     1     -28.363   6.939 -10.728  0.00  0.00    +0.000 A 
ATOM      8  C   UNL     1     -29.678   7.371 -10.852  0.00  0.00    +0.000 A 
BRANCH   3  10
ATOM      9  C   UNL     1     -32.057   9.158 -11.880  0.00  0.00    +0.000 C 
ATOM     10  O   UNL     1     -31.328   9.142 -10.679  0.00  0.00    +0.000 OA
ENDBRANCH   3  10
BRANCH   7  11
ATOM     11  O   UNL     1     -28.008   5.612 -10.872  0.00  0.00    +0.000 OA
ATOM     12  C   UNL     1     -28.999   4.620 -10.724  0.00  0.00    +0.000 C 
ENDBRANCH   7  11
ENDBRANCH   1   6
BRANCH   2  13
ATOM     13  C   UNL     1     -25.414   8.043  -7.318  0.00  0.00    +0.000 A 
ATOM     14  C   UNL     1     -24.270   8.618  -6.776  0.00  0.00    +0.000 A 
ATOM     15  C   UNL     1     -24.249   9.192  -5.518  0.00  0.00    +0.000 A 
ATOM     16  C   UNL     1     -25.188   8.710  -4.617  0.00  0.00    +0.000 A 
ATOM     17  C   UNL     1     -26.371   8.177  -5.108  0.00  0.00    +0.000 A 
ATOM     18  C   UNL     1     -26.524   8.040  -6.482  0.00  0.00    +0.000 A 
BRANCH  15  19
ATOM     19  O   UNL     1     -23.014   9.630  -5.031  0.00  0.00    +0.000 OA
ATOM     20  C   UNL     1     -23.039  10.594  -4.013  0.00  0.00    +0.000 C 
ENDBRANCH  15  19
BRANCH  17  21
ATOM     21  O   UNL     1     -27.470   8.240  -4.245  0.00  0.00    +0.000 OA
ATOM     22  C   UNL     1     -28.296   7.114  -4.002  0.00  0.00    +0.000 C 
ENDBRANCH  17  21
ENDBRANCH   2  13
TORSDOF 6
ENDMDL
MODEL 6
REMARK VINA RESULT:      -5.7     19.847     21.194
REMARK  Name = 
REMARK  6 active torsions:
REMARK  status: ('A' for Active; 'I' for Inactive)
REMARK    1  A    between atoms: O_2  and  C_3
REMARK    2  A    between atoms: C_6  and  C_7
REMARK    3  A    between atoms: C_8  and  C_9
REMARK    4  A    between atoms: C_11  and  O_12
REMARK    5  A    between atoms: C_15  and  O_16
REMARK    6  A    between atoms: C_19  and  O_20
REMARK                            x       y       z     vdW  Elec       q    Type
REMARK                         _______ _______ _______ _____ _____    ______ ____
ROOT
ATOM      1  C   UNL     1     -34.430  -3.999  -4.010  0.00  0.00    +0.000 C 
ATOM      2  C   UNL     1     -34.297  -2.950  -4.780  0.00  0.00    +0.000 C 
ENDROOT
BRANCH   1   6
ATOM      3  C   UNL     1     -30.559  -5.379  -3.750  0.00  0.00    +0.000 A 
ATOM      4  C   UNL     1     -31.116  -4.828  -2.602  0.00  0.00    +0.000 A 
ATOM      5  C   UNL     1     -32.388  -4.292  -2.754  0.00  0.00    +0.000 A 
ATOM      6  C   UNL     1     -33.329  -4.871  -3.596  0.00  0.00    +0.000 A 
ATOM      7  C   UNL     1     -32.818  -5.789  -4.508  0.00  0.00    +0.000 A 
ATOM      8  C   UNL     1     -31.452  -6.039  -4.584  0.00  0.00    +0.000 A 
BRANCH   3  10
ATOM      9  C   UNL     1     -28.425  -4.347  -4.164  0.00  0.00    +0.000 C 
ATOM     10  O   UNL     1     -29.183  -5.504  -3.914  0.00  0.00    +0.000 OA
ENDBRANCH   3  10
BRANCH   7  11
ATOM     11  O   UNL     1     -33.730  -6.433  -5.320  0.00  0.00    +0.000 OA
ATOM     12  C   UNL     1     -34.303  -7.644  -4.879  0.00  0.00    +0.000 C 
ENDBRANCH   7  11
ENDBRANCH   1   6
BRANCH   2  13
ATOM     13  C   UNL     1     -35.124  -2.699  -5.970  0.00  0.00    +0.000 A 
ATOM     14  C   UNL     1     -35.375  -3.806  -6.771  0.00  0.00    +0.000 A 
ATOM     15  C   UNL     1     -36.592  -4.013  -7.395  0.00  0.00    +0.000 A 
ATOM     16  C   UNL     1     -37.341  -2.875  -7.657  0.00  0.00    +0.000 A 
ATOM     17  C   UNL     1     -37.165  -1.761  -6.849  0.00  0.00    +0.000 A 
ATOM     18  C   UNL     1     -36.168  -1.786  -5.881  0.00  0.00    +0.000 A 
BRANCH  15  19
ATOM     19  O   UNL     1     -36.689  -5.098  -8.272  0.00  0.00    +0.000 OA
ATOM     20  C   UNL     1     -36.089  -6.299  -7.865  0.00  0.00    +0.000 C 
ENDBRANCH  15  19
BRANCH  17  21
ATOM     21  O   UNL     1     -38.262  -0.899  -6.757  0.00  0.00    +0.000 OA
ATOM     22  C   UNL     1     -38.129   0.502  -6.929  0.00  0.00    +0.000 C 
ENDBRANCH  17  21
ENDBRANCH   2  13
TORSDOF 6
ENDMDL
MODEL 7
REMARK VINA RESULT:      -5.6     19.904     22.586
REMARK  Name = 
REMARK  6 active torsions:
REMARK  status: ('A' for Active; 'I' for Inactive)
REMARK    1  A    between atoms: O_2  and  C_3
REMARK    2  A    between atoms: C_6  and  C_7
REMARK    3  A    between atoms: C_8  and  C_9
REMARK    4  A    between atoms: C_11  and  O_12
REMARK    5  A    between atoms: C_15  and  O_16
REMARK    6  A    between atoms: C_19  and  O_20
REMARK                            x       y       z     vdW  Elec       q    Type
REMARK                         _______ _______ _______ _____ _____    ______ ____
ROOT
ATOM      1  C   UNL     1     -25.716   8.528  -8.874  0.00  0.00    +0.000 C 
ATOM      2  C   UNL     1     -26.714   7.694  -9.006  0.00  0.00    +0.000 C 
ENDROOT
BRANCH   1   6
ATOM      3  C   UNL     1     -25.122   8.572  -4.799  0.00  0.00    +0.000 A 
ATOM      4  C   UNL     1     -24.264   7.785  -5.558  0.00  0.00    +0.000 A 
ATOM      5  C   UNL     1     -24.554   7.724  -6.915  0.00  0.00    +0.000 A 
ATOM      6  C   UNL     1     -25.044   8.825  -7.607  0.00  0.00    +0.000 A 
ATOM      7  C   UNL     1     -25.535   9.852  -6.808  0.00  0.00    +0.000 A 
ATOM      8  C   UNL     1     -25.574   9.728  -5.424  0.00  0.00    +0.000 A 
BRANCH   3  10
ATOM      9  C   UNL     1     -24.202   8.603  -2.576  0.00  0.00    +0.000 C 
ATOM     10  O   UNL     1     -25.291   8.371  -3.433  0.00  0.00    +0.000 OA
ENDBRANCH   3  10
BRANCH   7  11
ATOM     11  O   UNL     1     -25.973  10.990  -7.456  0.00  0.00    +0.000 OA
ATOM     12  C   UNL     1     -26.643  11.985  -6.715  0.00  0.00    +0.000 C 
ENDBRANCH   7  11
ENDBRANCH   1   6
BRANCH   2  13
ATOM     13  C   UNL     1     -27.969   8.023  -9.698  0.00  0.00    +0.000 A 
ATOM     14  C   UNL     1     -27.875   9.006 -10.677  0.00  0.00    +0.000 A 
ATOM     15  C   UNL     1     -28.590   8.948 -11.860  0.00  0.00    +0.000 A 
ATOM     16  C   UNL     1     -29.772   8.223 -11.820  0.00  0.00    +0.000 A 
ATOM     17  C   UNL     1     -29.893   7.195 -10.896  0.00  0.00    +0.000 A 
ATOM     18  C   UNL     1     -28.874   7.003  -9.971  0.00  0.00    +0.000 A 
BRANCH  15  19
ATOM     19  O   UNL     1     -28.507  10.052 -12.715  0.00  0.00    +0.000 OA
ATOM     20  C   UNL     1     -28.831  11.302 -12.171  0.00  0.00    +0.000 C 
ENDBRANCH  15  19
BRANCH  17  21
ATOM     21  O   UNL     1     -30.780   6.171 -11.240  0.00  0.00    +0.000 OA
ATOM     22  C   UNL     1     -30.853   4.964 -10.499  0.00  0.00    +0.000 C 
ENDBRANCH  17  21
ENDBRANCH   2  13
TORSDOF 6
ENDMDL
MODEL 8
REMARK VINA RESULT:      -5.5     17.395     22.667
REMARK  Name = 
REMARK  6 active torsions:
REMARK  status: ('A' for Active; 'I' for Inactive)
REMARK    1  A    between atoms: O_2  and  C_3
REMARK    2  A    between atoms: C_6  and  C_7
REMARK    3  A    between atoms: C_8  and  C_9
REMARK    4  A    between atoms: C_11  and  O_12
REMARK    5  A    between atoms: C_15  and  O_16
REMARK    6  A    between atoms: C_19  and  O_20
REMARK                            x       y       z     vdW  Elec       q    Type
REMARK                         _______ _______ _______ _____ _____    ______ ____
ROOT
ATOM      1  C   UNL     1     -18.070  17.609  17.238  0.00  0.00    +0.000 C 
ATOM      2  C   UNL     1     -17.946  16.799  16.218  0.00  0.00    +0.000 C 
ENDROOT
BRANCH   1   6
ATOM      3  C   UNL     1     -14.169  18.034  18.487  0.00  0.00    +0.000 A 
ATOM      4  C   UNL     1     -14.790  19.155  17.948  0.00  0.00    +0.000 A 
ATOM      5  C   UNL     1     -16.071  18.947  17.455  0.00  0.00    +0.000 A 
ATOM      6  C   UNL     1     -16.959  18.073  18.071  0.00  0.00    +0.000 A 
ATOM      7  C   UNL     1     -16.381  17.190  18.977  0.00  0.00    +0.000 A 
ATOM      8  C   UNL     1     -15.006  17.170  19.182  0.00  0.00    +0.000 A 
BRANCH   3  10
ATOM      9  C   UNL     1     -12.156  18.212  19.792  0.00  0.00    +0.000 C 
ATOM     10  O   UNL     1     -12.784  17.927  18.568  0.00  0.00    +0.000 OA
ENDBRANCH   3  10
BRANCH   7  11
ATOM     11  O   UNL     1     -17.237  16.347  19.656  0.00  0.00    +0.000 OA
ATOM     12  C   UNL     1     -17.630  16.683  20.969  0.00  0.00    +0.000 C 
ENDBRANCH   7  11
ENDBRANCH   1   6
BRANCH   2  13
ATOM     13  C   UNL     1     -18.758  15.589  16.030  0.00  0.00    +0.000 A 
ATOM     14  C   UNL     1     -18.097  14.503  15.468  0.00  0.00    +0.000 A 
ATOM     15  C   UNL     1     -18.333  13.200  15.866  0.00  0.00    +0.000 A 
ATOM     16  C   UNL     1     -19.585  12.949  16.411  0.00  0.00    +0.000 A 
ATOM     17  C   UNL     1     -20.261  13.989  17.032  0.00  0.00    +0.000 A 
ATOM     18  C   UNL     1     -19.714  15.266  16.987  0.00  0.00    +0.000 A 
BRANCH  15  19
ATOM     19  O   UNL     1     -17.698  12.183  15.146  0.00  0.00    +0.000 OA
ATOM     20  C   UNL     1     -17.022  11.206  15.891  0.00  0.00    +0.000 C 
ENDBRANCH  15  19
BRANCH  17  21
ATOM     21  O   UNL     1     -21.177  13.613  18.020  0.00  0.00    +0.000 OA
ATOM     22  C   UNL     1     -21.716  12.303  18.080  0.00  0.00    +0.000 C 
ENDBRANCH  17  21
ENDBRANCH   2  13
TORSDOF 6
ENDMDL
MODEL 9
REMARK VINA RESULT:      -5.4     34.047     37.187
REMARK  Name = 
REMARK  6 active torsions:
REMARK  status: ('A' for Active; 'I' for Inactive)
REMARK    1  A    between atoms: O_2  and  C_3
REMARK    2  A    between atoms: C_6  and  C_7
REMARK    3  A    between atoms: C_8  and  C_9
REMARK    4  A    between atoms: C_11  and  O_12
REMARK    5  A    between atoms: C_15  and  O_16
REMARK    6  A    between atoms: C_19  and  O_20
REMARK                            x       y       z     vdW  Elec       q    Type
REMARK                         _______ _______ _______ _____ _____    ______ ____
ROOT
ATOM      1  C   UNL     1     -11.766  18.755 -19.810  0.00  0.00    +0.000 C 
ATOM      2  C   UNL     1     -10.513  18.645 -20.169  0.00  0.00    +0.000 C 
ENDROOT
BRANCH   1   6
ATOM      3  C   UNL     1     -15.155  17.735 -21.915  0.00  0.00    +0.000 A 
ATOM      4  C   UNL     1     -13.953  17.179 -22.338  0.00  0.00    +0.000 A 
ATOM      5  C   UNL     1     -12.823  17.619 -21.661  0.00  0.00    +0.000 A 
ATOM      6  C   UNL     1     -12.849  17.900 -20.300  0.00  0.00    +0.000 A 
ATOM      7  C   UNL     1     -14.119  18.041 -19.752  0.00  0.00    +0.000 A 
ATOM      8  C   UNL     1     -15.256  17.960 -20.548  0.00  0.00    +0.000 A 
BRANCH   3  10
ATOM      9  C   UNL     1     -17.340  18.631 -22.375  0.00  0.00    +0.000 C 
ATOM     10  O   UNL     1     -16.269  17.801 -22.747  0.00  0.00    +0.000 OA
ENDBRANCH   3  10
BRANCH   7  11
ATOM     11  O   UNL     1     -14.189  18.258 -18.391  0.00  0.00    +0.000 OA
ATOM     12  C   UNL     1     -15.342  18.867 -17.853  0.00  0.00    +0.000 C 
ENDBRANCH   7  11
ENDBRANCH   1   6
BRANCH   2  13
ATOM     13  C   UNL     1      -9.694  19.772 -20.638  0.00  0.00    +0.000 A 
ATOM     14  C   UNL     1      -8.463  19.923 -20.009  0.00  0.00    +0.000 A 
ATOM     15  C   UNL     1      -7.324  20.317 -20.686  0.00  0.00    +0.000 A 
ATOM     16  C   UNL     1      -7.530  21.070 -21.834  0.00  0.00    +0.000 A 
ATOM     17  C   UNL     1      -8.721  20.913 -22.528  0.00  0.00    +0.000 A 
ATOM     18  C   UNL     1      -9.708  20.096 -21.990  0.00  0.00    +0.000 A 
BRANCH  15  19
ATOM     19  O   UNL     1      -6.173  20.552 -19.927  0.00  0.00    +0.000 OA
ATOM     20  C   UNL     1      -6.095  19.916 -18.680  0.00  0.00    +0.000 C 
ENDBRANCH  15  19
BRANCH  17  21
ATOM     21  O   UNL     1      -8.671  21.207 -23.894  0.00  0.00    +0.000 OA
ATOM     22  C   UNL     1      -9.771  20.961 -24.754  0.00  0.00    +0.000 C 
ENDBRANCH  17  21
ENDBRANCH   2  13
TORSDOF 6
ENDMDL
MODEL 10
REMARK VINA RESULT:      -5.4      5.921      7.282
REMARK  Name = 
REMARK  6 active torsions:
REMARK  status: ('A' for Active; 'I' for Inactive)
REMARK    1  A    between atoms: O_2  and  C_3
REMARK    2  A    between atoms: C_6  and  C_7
REMARK    3  A    between atoms: C_8  and  C_9
REMARK    4  A    between atoms: C_11  and  O_12
REMARK    5  A    between atoms: C_15  and  O_16
REMARK    6  A    between atoms: C_19  and  O_20
REMARK                            x       y       z     vdW  Elec       q    Type
REMARK                         _______ _______ _______ _____ _____    ______ ____
ROOT
ATOM      1  C   UNL     1     -23.675  -2.109   6.412  0.00  0.00    +0.000 C 
ATOM      2  C   UNL     1     -22.560  -1.426   6.448  0.00  0.00    +0.000 C 
ENDROOT
BRANCH   1   6
ATOM      3  C   UNL     1     -27.124  -1.167   8.454  0.00  0.00    +0.000 A 
ATOM      4  C   UNL     1     -26.263  -0.121   8.146  0.00  0.00    +0.000 A 
ATOM      5  C   UNL     1     -25.069  -0.491   7.539  0.00  0.00    +0.000 A 
ATOM      6  C   UNL     1     -25.006  -1.540   6.629  0.00  0.00    +0.000 A 
ATOM      7  C   UNL     1     -26.110  -2.387   6.630  0.00  0.00    +0.000 A 
ATOM      8  C   UNL     1     -27.154  -2.204   7.530  0.00  0.00    +0.000 A 
BRANCH   3  10
ATOM      9  C   UNL     1     -29.415  -1.395   9.154  0.00  0.00    +0.000 C 
ATOM     10  O   UNL     1     -28.084  -1.060   9.456  0.00  0.00    +0.000 OA
ENDBRANCH   3  10
BRANCH   7  11
ATOM     11  O   UNL     1     -26.113  -3.405   5.697  0.00  0.00    +0.000 OA
ATOM     12  C   UNL     1     -26.799  -3.214   4.480  0.00  0.00    +0.000 C 
ENDBRANCH   7  11
ENDBRANCH   1   6
BRANCH   2  13
ATOM     13  C   UNL     1     -21.383  -1.821   7.236  0.00  0.00    +0.000 A 
ATOM     14  C   UNL     1     -20.411  -0.840   7.396  0.00  0.00    +0.000 A 
ATOM     15  C   UNL     1     -19.704  -0.678   8.573  0.00  0.00    +0.000 A 
ATOM     16  C   UNL     1     -19.581  -1.809   9.367  0.00  0.00    +0.000 A 
ATOM     17  C   UNL     1     -20.556  -2.792   9.283  0.00  0.00    +0.000 A 
ATOM     18  C   UNL     1     -21.557  -2.662   8.329  0.00  0.00    +0.000 A 
BRANCH  15  19
ATOM     19  O   UNL     1     -18.669   0.262   8.577  0.00  0.00    +0.000 OA
ATOM     20  C   UNL     1     -19.039   1.613   8.644  0.00  0.00    +0.000 C 
ENDBRANCH  15  19
BRANCH  17  21
ATOM     21  O   UNL     1     -20.723  -3.580  10.425  0.00  0.00    +0.000 OA
ATOM     22  C   UNL     1     -20.188  -4.890  10.515  0.00  0.00    +0.000 C 
ENDBRANCH  17  21
ENDBRANCH   2  13
TORSDOF 6
ENDMDL
