MODEL 1
REMARK VINA RESULT:      -7.6      0.000      0.000
REMARK  Name = 
REMARK  6 active torsions:
REMARK  status: ('A' for Active; 'I' for Inactive)
REMARK    1  A    between atoms: O_2  and  C_3
REMARK    2  A    between atoms: C_5  and  C_6
REMARK    3  A    between atoms: C_6  and  O_7
REMARK    4  A    between atoms: O_7  and  C_8
REMARK    5  A    between atoms: C_14  and  C_15
REMARK    6  A    between atoms: C_16  and  C_17
REMARK                            x       y       z     vdW  Elec       q    Type
REMARK                         _______ _______ _______ _____ _____    ______ ____
ROOT
ATOM      1  C   UNL     1     -17.689  -5.532   5.619  0.00  0.00    +0.000 A 
ATOM      2  C   UNL     1     -16.830  -5.501   4.538  0.00  0.00    +0.000 A 
ATOM      3  C   UNL     1     -16.355  -6.668   3.971  0.00  0.00    +0.000 A 
ATOM      4  O   UNL     1     -15.137  -6.745   3.300  0.00  0.00    +0.000 OA
ATOM      5  C   UNL     1     -17.048  -7.833   4.279  0.00  0.00    +0.000 A 
ATOM      6  C   UNL     1     -17.689  -7.884   5.511  0.00  0.00    +0.000 A 
ATOM      7  C   UNL     1     -18.031  -6.730   6.206  0.00  0.00    +0.000 A 
ENDROOT
BRANCH   7   8
ATOM      8  C   UNL     1     -19.294  -6.749   6.959  0.00  0.00    +0.000 C 
ATOM      9  C   UNL     1     -19.393  -6.900   8.246  0.00  0.00    +0.000 C 
BRANCH   9  10
ATOM     10  C   UNL     1     -19.940  -5.906   9.184  0.00  0.00    +0.000 A 
ATOM     11  C   UNL     1     -19.400  -4.628   9.285  0.00  0.00    +0.000 A 
ATOM     12  C   UNL     1     -20.173  -3.613   9.841  0.00  0.00    +0.000 A 
ATOM     13  O   UNL     1     -19.613  -2.452  10.356  0.00  0.00    +0.000 OA
ATOM     14  C   UNL     1     -21.537  -3.816   9.964  0.00  0.00    +0.000 A 
ATOM     15  C   UNL     1     -22.111  -5.043   9.775  0.00  0.00    +0.000 A 
ATOM     16  O   UNL     1     -23.464  -5.206  10.041  0.00  0.00    +0.000 OA
ATOM     17  C   UNL     1     -21.214  -6.082   9.713  0.00  0.00    +0.000 A 
ENDBRANCH   9  10
ENDBRANCH   7   8
BRANCH   1  18
ATOM     18  O   UNL     1     -17.932  -4.401   6.359  0.00  0.00    +0.000 OA
BRANCH  18  19
ATOM     19  C   UNL     1     -17.065  -3.405   6.708  0.00  0.00    +0.000 C 
BRANCH  19  22
ATOM     20  C   UNL     1     -18.580  -0.341   6.414  0.00  0.00    +0.000 C 
ATOM     21  O   UNL     1     -18.516  -1.637   7.279  0.00  0.00    +0.000 OA
ATOM     22  C   UNL     1     -17.615  -1.962   6.086  0.00  0.00    +0.000 C 
ATOM     23  C   UNL     1     -16.264  -1.133   6.794  0.00  0.00    +0.000 C 
ATOM     24  O   UNL     1     -15.921  -0.467   5.477  0.00  0.00    +0.000 OA
ATOM     25  C   UNL     1     -15.436   0.685   6.105  0.00  0.00    +0.000 C 
ATOM     26  C   UNL     1     -14.737   0.358   7.413  0.00  0.00    +0.000 C 
ATOM     27  C   UNL     1     -14.540   1.526   5.300  0.00  0.00    +0.000 C 
ATOM     28  O   UNL     1     -16.716   1.135   6.269  0.00  0.00    +0.000 OA
ATOM     29  C   UNL     1     -17.197   0.197   7.344  0.00  0.00    +0.000 C 
BRANCH  20  31
ATOM     30  C   UNL     1     -20.603   0.217   6.842  0.00  0.00    +0.000 C 
ATOM     31  O   UNL     1     -19.572   0.331   7.410  0.00  0.00    +0.000 OA
ENDBRANCH  20  31
ENDBRANCH  19  22
ENDBRANCH  18  19
ENDBRANCH   1  18
TORSDOF 6
ENDMDL
MODEL 2
REMARK VINA RESULT:      -7.4     20.115     22.008
REMARK  Name = 
REMARK  6 active torsions:
REMARK  status: ('A' for Active; 'I' for Inactive)
REMARK    1  A    between atoms: O_2  and  C_3
REMARK    2  A    between atoms: C_5  and  C_6
REMARK    3  A    between atoms: C_6  and  O_7
REMARK    4  A    between atoms: O_7  and  C_8
REMARK    5  A    between atoms: C_14  and  C_15
REMARK    6  A    between atoms: C_16  and  C_17
REMARK                            x       y       z     vdW  Elec       q    Type
REMARK                         _______ _______ _______ _____ _____    ______ ____
ROOT
ATOM      1  C   UNL     1     -35.604  -3.262  -5.397  0.00  0.00    +0.000 A 
ATOM      2  C   UNL     1     -36.071  -3.017  -4.121  0.00  0.00    +0.000 A 
ATOM      3  C   UNL     1     -37.348  -3.389  -3.746  0.00  0.00    +0.000 A 
ATOM      4  O   UNL     1     -38.067  -2.735  -2.750  0.00  0.00    +0.000 OA
ATOM      5  C   UNL     1     -37.984  -4.324  -4.556  0.00  0.00    +0.000 A 
ATOM      6  C   UNL     1     -37.635  -4.340  -5.902  0.00  0.00    +0.000 A 
ATOM      7  C   UNL     1     -36.430  -3.814  -6.351  0.00  0.00    +0.000 A 
ENDROOT
BRANCH   7   8
ATOM      8  C   UNL     1     -35.765  -4.512  -7.462  0.00  0.00    +0.000 C 
ATOM      9  C   UNL     1     -35.731  -5.801  -7.620  0.00  0.00    +0.000 C 
BRANCH   9  10
ATOM     10  C   UNL     1     -36.319  -6.541  -8.748  0.00  0.00    +0.000 A 
ATOM     11  C   UNL     1     -37.452  -6.077  -9.410  0.00  0.00    +0.000 A 
ATOM     12  C   UNL     1     -37.723  -6.546 -10.692  0.00  0.00    +0.000 A 
ATOM     13  O   UNL     1     -38.990  -6.480 -11.254  0.00  0.00    +0.000 OA
ATOM     14  C   UNL     1     -36.709  -7.182 -11.387  0.00  0.00    +0.000 A 
ATOM     15  C   UNL     1     -35.540  -7.564 -10.787  0.00  0.00    +0.000 A 
ATOM     16  O   UNL     1     -34.621  -8.312 -11.509  0.00  0.00    +0.000 OA
ATOM     17  C   UNL     1     -35.565  -7.501  -9.415  0.00  0.00    +0.000 A 
ENDBRANCH   9  10
ENDBRANCH   7   8
BRANCH   1  18
ATOM     18  O   UNL     1     -34.465  -2.649  -5.860  0.00  0.00    +0.000 OA
BRANCH  18  19
ATOM     19  C   UNL     1     -33.236  -2.570  -5.269  0.00  0.00    +0.000 C 
BRANCH  19  22
ATOM     20  C   UNL     1     -30.757  -4.923  -5.566  0.00  0.00    +0.000 C 
ATOM     21  O   UNL     1     -31.056  -3.394  -5.624  0.00  0.00    +0.000 OA
ATOM     22  C   UNL     1     -32.443  -4.020  -5.467  0.00  0.00    +0.000 C 
ATOM     23  C   UNL     1     -32.258  -4.163  -3.747  0.00  0.00    +0.000 C 
ATOM     24  O   UNL     1     -32.823  -5.569  -3.755  0.00  0.00    +0.000 OA
ATOM     25  C   UNL     1     -32.025  -5.973  -2.680  0.00  0.00    +0.000 C 
ATOM     26  C   UNL     1     -31.825  -4.849  -1.678  0.00  0.00    +0.000 C 
ATOM     27  C   UNL     1     -32.482  -7.165  -1.952  0.00  0.00    +0.000 C 
ATOM     28  O   UNL     1     -30.967  -6.141  -3.528  0.00  0.00    +0.000 OA
ATOM     29  C   UNL     1     -30.633  -4.704  -3.832  0.00  0.00    +0.000 C 
BRANCH  20  31
ATOM     30  C   UNL     1     -29.184  -4.264  -6.860  0.00  0.00    +0.000 C 
ATOM     31  O   UNL     1     -29.230  -4.680  -5.754  0.00  0.00    +0.000 OA
ENDBRANCH  20  31
ENDBRANCH  19  22
ENDBRANCH  18  19
ENDBRANCH   1  18
TORSDOF 6
ENDMDL
MODEL 3
REMARK VINA RESULT:      -7.4      1.592      6.903
REMARK  Name = 
REMARK  6 active torsions:
REMARK  status: ('A' for Active; 'I' for Inactive)
REMARK    1  A    between atoms: O_2  and  C_3
REMARK    2  A    between atoms: C_5  and  C_6
REMARK    3  A    between atoms: C_6  and  O_7
REMARK    4  A    between atoms: O_7  and  C_8
REMARK    5  A    between atoms: C_14  and  C_15
REMARK    6  A    between atoms: C_16  and  C_17
REMARK                            x       y       z     vdW  Elec       q    Type
REMARK                         _______ _______ _______ _____ _____    ______ ____
ROOT
ATOM      1  C   UNL     1     -18.279  -6.261   6.916  0.00  0.00    +0.000 A 
ATOM      2  C   UNL     1     -18.134  -7.482   6.287  0.00  0.00    +0.000 A 
ATOM      3  C   UNL     1     -17.647  -7.565   4.996  0.00  0.00    +0.000 A 
ATOM      4  O   UNL     1     -17.970  -8.604   4.129  0.00  0.00    +0.000 OA
ATOM      5  C   UNL     1     -16.976  -6.446   4.514  0.00  0.00    +0.000 A 
ATOM      6  C   UNL     1     -17.358  -5.210   5.021  0.00  0.00    +0.000 A 
ATOM      7  C   UNL     1     -18.012  -5.090   6.242  0.00  0.00    +0.000 A 
ENDROOT
BRANCH   7   8
ATOM      8  C   UNL     1     -17.679  -3.922   7.071  0.00  0.00    +0.000 C 
ATOM      9  C   UNL     1     -16.748  -3.057   6.803  0.00  0.00    +0.000 C 
BRANCH   9  10
ATOM     10  C   UNL     1     -16.962  -1.626   6.536  0.00  0.00    +0.000 A 
ATOM     11  C   UNL     1     -17.681  -0.821   7.414  0.00  0.00    +0.000 A 
ATOM     12  C   UNL     1     -17.507   0.559   7.360  0.00  0.00    +0.000 A 
ATOM     13  O   UNL     1     -18.443   1.445   7.875  0.00  0.00    +0.000 OA
ATOM     14  C   UNL     1     -16.406   1.057   6.685  0.00  0.00    +0.000 A 
ATOM     15  C   UNL     1     -15.620   0.270   5.889  0.00  0.00    +0.000 A 
ATOM     16  O   UNL     1     -14.611   0.858   5.139  0.00  0.00    +0.000 OA
ATOM     17  C   UNL     1     -16.155  -0.966   5.614  0.00  0.00    +0.000 A 
ENDBRANCH   9  10
ENDBRANCH   7   8
BRANCH   1  18
ATOM     18  O   UNL     1     -19.020  -6.145   8.067  0.00  0.00    +0.000 OA
BRANCH  18  19
ATOM     19  C   UNL     1     -20.208  -6.740   8.382  0.00  0.00    +0.000 C 
BRANCH  19  22
ATOM     20  C   UNL     1     -21.378  -4.217  10.391  0.00  0.00    +0.000 C 
ATOM     21  O   UNL     1     -20.429  -4.539   9.196  0.00  0.00    +0.000 OA
ATOM     22  C   UNL     1     -20.908  -5.919   9.650  0.00  0.00    +0.000 C 
ATOM     23  C   UNL     1     -22.387  -5.776   8.751  0.00  0.00    +0.000 C 
ATOM     24  O   UNL     1     -23.199  -6.318   9.910  0.00  0.00    +0.000 OA
ATOM     25  C   UNL     1     -24.316  -5.541   9.582  0.00  0.00    +0.000 C 
ATOM     26  C   UNL     1     -24.469  -5.386   8.080  0.00  0.00    +0.000 C 
ATOM     27  C   UNL     1     -25.600  -5.998  10.133  0.00  0.00    +0.000 C 
ATOM     28  O   UNL     1     -23.740  -4.459  10.187  0.00  0.00    +0.000 OA
ATOM     29  C   UNL     1     -22.653  -4.141   9.193  0.00  0.00    +0.000 C 
BRANCH  20  31
ATOM     30  C   UNL     1     -19.937  -2.671  10.048  0.00  0.00    +0.000 C 
ATOM     31  O   UNL     1     -21.100  -2.690  10.262  0.00  0.00    +0.000 OA
ENDBRANCH  20  31
ENDBRANCH  19  22
ENDBRANCH  18  19
ENDBRANCH   1  18
TORSDOF 6
ENDMDL
MODEL 4
REMARK VINA RESULT:      -7.3     16.654     21.957
REMARK  Name = 
REMARK  6 active torsions:
REMARK  status: ('A' for Active; 'I' for Inactive)
REMARK    1  A    between atoms: O_2  and  C_3
REMARK    2  A    between atoms: C_5  and  C_6
REMARK    3  A    between atoms: C_6  and  O_7
REMARK    4  A    between atoms: O_7  and  C_8
REMARK    5  A    between atoms: C_14  and  C_15
REMARK    6  A    between atoms: C_16  and  C_17
REMARK                            x       y       z     vdW  Elec       q    Type
REMARK                         _______ _______ _______ _____ _____    ______ ____
ROOT
ATOM      1  C   UNL     1     -14.024  17.156   1.365  0.00  0.00    +0.000 A 
ATOM      2  C   UNL     1     -14.512  18.211   0.620  0.00  0.00    +0.000 A 
ATOM      3  C   UNL     1     -15.497  18.017  -0.331  0.00  0.00    +0.000 A 
ATOM      4  O   UNL     1     -15.645  18.836  -1.447  0.00  0.00    +0.000 OA
ATOM      5  C   UNL     1     -16.217  16.831  -0.244  0.00  0.00    +0.000 A 
ATOM      6  C   UNL     1     -15.564  15.730   0.298  0.00  0.00    +0.000 A 
ATOM      7  C   UNL     1     -14.455  15.870   1.123  0.00  0.00    +0.000 A 
ENDROOT
BRANCH   7   8
ATOM      8  C   UNL     1     -14.321  14.919   2.236  0.00  0.00    +0.000 C 
ATOM      9  C   UNL     1     -14.801  13.711   2.248  0.00  0.00    +0.000 C 
BRANCH   9  10
ATOM     10  C   UNL     1     -14.006  12.476   2.335  0.00  0.00    +0.000 A 
ATOM     11  C   UNL     1     -12.767  12.451   2.967  0.00  0.00    +0.000 A 
ATOM     12  C   UNL     1     -12.254  11.231   3.398  0.00  0.00    +0.000 A 
ATOM     13  O   UNL     1     -10.902  11.041   3.649  0.00  0.00    +0.000 OA
ATOM     14  C   UNL     1     -13.115  10.150   3.486  0.00  0.00    +0.000 A 
ATOM     15  C   UNL     1     -14.376  10.177   2.959  0.00  0.00    +0.000 A 
ATOM     16  O   UNL     1     -15.138   9.017   2.967  0.00  0.00    +0.000 OA
ATOM     17  C   UNL     1     -14.616  11.244   2.126  0.00  0.00    +0.000 A 
ENDBRANCH   9  10
ENDBRANCH   7   8
BRANCH   1  18
ATOM     18  O   UNL     1     -12.866  17.283   2.093  0.00  0.00    +0.000 OA
BRANCH  18  19
ATOM     19  C   UNL     1     -12.376  18.384   2.735  0.00  0.00    +0.000 C 
BRANCH  19  22
ATOM     20  C   UNL     1     -10.585  20.813   1.104  0.00  0.00    +0.000 C 
ATOM     21  O   UNL     1     -11.895  20.537   1.905  0.00  0.00    +0.000 OA
ATOM     22  C   UNL     1     -11.277  19.147   1.745  0.00  0.00    +0.000 C 
ATOM     23  C   UNL     1     -10.215  19.389   3.097  0.00  0.00    +0.000 C 
ATOM     24  O   UNL     1      -9.040  18.801   2.341  0.00  0.00    +0.000 OA
ATOM     25  C   UNL     1      -8.118  19.630   2.989  0.00  0.00    +0.000 C 
ATOM     26  C   UNL     1      -8.510  19.882   4.434  0.00  0.00    +0.000 C 
ATOM     27  C   UNL     1      -6.720  19.180   2.961  0.00  0.00    +0.000 C 
ATOM     28  O   UNL     1      -8.449  20.656   2.147  0.00  0.00    +0.000 OA
ATOM     29  C   UNL     1      -9.819  21.002   2.668  0.00  0.00    +0.000 C 
BRANCH  20  31
ATOM     30  C   UNL     1     -11.798  22.359   0.252  0.00  0.00    +0.000 C 
ATOM     31  O   UNL     1     -10.900  22.337   1.022  0.00  0.00    +0.000 OA
ENDBRANCH  20  31
ENDBRANCH  19  22
ENDBRANCH  18  19
ENDBRANCH   1  18
TORSDOF 6
ENDMDL
MODEL 5
REMARK VINA RESULT:      -7.2     21.060     23.178
REMARK  Name = 
REMARK  6 active torsions:
REMARK  status: ('A' for Active; 'I' for Inactive)
REMARK    1  A    between atoms: O_2  and  C_3
REMARK    2  A    between atoms: C_5  and  C_6
REMARK    3  A    between atoms: C_6  and  O_7
REMARK    4  A    between atoms: O_7  and  C_8
REMARK    5  A    between atoms: C_14  and  C_15
REMARK    6  A    between atoms: C_16  and  C_17
REMARK                            x       y       z     vdW  Elec       q    Type
REMARK                         _______ _______ _______ _____ _____    ______ ____
ROOT
ATOM      1  C   UNL     1     -35.527  -4.313  -7.308  0.00  0.00    +0.000 A 
ATOM      2  C   UNL     1     -36.766  -3.711  -7.221  0.00  0.00    +0.000 A 
ATOM      3  C   UNL     1     -36.962  -2.593  -6.431  0.00  0.00    +0.000 A 
ATOM      4  O   UNL     1     -38.192  -2.271  -5.864  0.00  0.00    +0.000 OA
ATOM      5  C   UNL     1     -35.820  -1.901  -6.044  0.00  0.00    +0.000 A 
ATOM      6  C   UNL     1     -34.648  -2.634  -5.910  0.00  0.00    +0.000 A 
ATOM      7  C   UNL     1     -34.472  -3.856  -6.548  0.00  0.00    +0.000 A 
ENDROOT
BRANCH   7   8
ATOM      8  C   UNL     1     -33.126  -4.164  -7.052  0.00  0.00    +0.000 C 
ATOM      9  C   UNL     1     -32.028  -3.607  -6.636  0.00  0.00    +0.000 C 
BRANCH   9  10
ATOM     10  C   UNL     1     -30.914  -4.303  -5.971  0.00  0.00    +0.000 A 
ATOM     11  C   UNL     1     -29.786  -3.618  -5.533  0.00  0.00    +0.000 A 
ATOM     12  C   UNL     1     -28.977  -4.202  -4.562  0.00  0.00    +0.000 A 
ATOM     13  O   UNL     1     -27.657  -3.817  -4.367  0.00  0.00    +0.000 OA
ATOM     14  C   UNL     1     -29.484  -5.265  -3.836  0.00  0.00    +0.000 A 
ATOM     15  C   UNL     1     -30.645  -5.900  -4.185  0.00  0.00    +0.000 A 
ATOM     16  O   UNL     1     -31.028  -7.040  -3.492  0.00  0.00    +0.000 OA
ATOM     17  C   UNL     1     -31.113  -5.571  -5.435  0.00  0.00    +0.000 A 
ENDBRANCH   9  10
ENDBRANCH   7   8
BRANCH   1  18
ATOM     18  O   UNL     1     -35.389  -5.568  -7.848  0.00  0.00    +0.000 OA
BRANCH  18  19
ATOM     19  C   UNL     1     -36.325  -6.557  -7.962  0.00  0.00    +0.000 C 
BRANCH  19  22
ATOM     20  C   UNL     1     -35.837  -9.697  -9.254  0.00  0.00    +0.000 C 
ATOM     21  O   UNL     1     -36.683  -8.870  -8.238  0.00  0.00    +0.000 OA
ATOM     22  C   UNL     1     -35.644  -7.863  -8.736  0.00  0.00    +0.000 C 
ATOM     23  C   UNL     1     -36.569  -7.511 -10.162  0.00  0.00    +0.000 C 
ATOM     24  O   UNL     1     -35.332  -7.567 -11.036  0.00  0.00    +0.000 OA
ATOM     25  C   UNL     1     -36.045  -8.056 -12.135  0.00  0.00    +0.000 C 
ATOM     26  C   UNL     1     -37.442  -7.466 -12.205  0.00  0.00    +0.000 C 
ATOM     27  C   UNL     1     -35.404  -7.881 -13.446  0.00  0.00    +0.000 C 
ATOM     28  O   UNL     1     -36.010  -9.313 -11.599  0.00  0.00    +0.000 OA
ATOM     29  C   UNL     1     -36.982  -9.149 -10.461  0.00  0.00    +0.000 C 
BRANCH  20  31
ATOM     30  C   UNL     1     -36.254 -11.322  -7.924  0.00  0.00    +0.000 C 
ATOM     31  O   UNL     1     -36.672 -10.982  -8.977  0.00  0.00    +0.000 OA
ENDBRANCH  20  31
ENDBRANCH  19  22
ENDBRANCH  18  19
ENDBRANCH   1  18
TORSDOF 6
ENDMDL
MODEL 6
REMARK VINA RESULT:      -7.1     20.092     23.083
REMARK  Name = 
REMARK  6 active torsions:
REMARK  status: ('A' for Active; 'I' for Inactive)
REMARK    1  A    between atoms: O_2  and  C_3
REMARK    2  A    between atoms: C_5  and  C_6
REMARK    3  A    between atoms: C_6  and  O_7
REMARK    4  A    between atoms: O_7  and  C_8
REMARK    5  A    between atoms: C_14  and  C_15
REMARK    6  A    between atoms: C_16  and  C_17
REMARK                            x       y       z     vdW  Elec       q    Type
REMARK                         _______ _______ _______ _____ _____    ______ ____
ROOT
ATOM      1  C   UNL     1     -27.305   7.355 -10.828  0.00  0.00    +0.000 A 
ATOM      2  C   UNL     1     -27.190   6.027 -10.468  0.00  0.00    +0.000 A 
ATOM      3  C   UNL     1     -28.163   5.108 -10.813  0.00  0.00    +0.000 A 
ATOM      4  O   UNL     1     -28.415   3.956 -10.074  0.00  0.00    +0.000 OA
ATOM      5  C   UNL     1     -29.039   5.484 -11.825  0.00  0.00    +0.000 A 
ATOM      6  C   UNL     1     -29.302   6.842 -11.965  0.00  0.00    +0.000 A 
ATOM      7  C   UNL     1     -28.433   7.810 -11.475  0.00  0.00    +0.000 A 
ENDROOT
BRANCH   7   8
ATOM      8  C   UNL     1     -28.278   9.038 -12.269  0.00  0.00    +0.000 C 
ATOM      9  C   UNL     1     -28.815  10.185 -11.981  0.00  0.00    +0.000 C 
BRANCH   9  10
ATOM     10  C   UNL     1     -28.077  11.419 -11.664  0.00  0.00    +0.000 A 
ATOM     11  C   UNL     1     -28.322  12.608 -12.345  0.00  0.00    +0.000 A 
ATOM     12  C   UNL     1     -27.938  13.811 -11.759  0.00  0.00    +0.000 A 
ATOM     13  O   UNL     1     -27.757  14.971 -12.499  0.00  0.00    +0.000 OA
ATOM     14  C   UNL     1     -27.639  13.818 -10.408  0.00  0.00    +0.000 A 
ATOM     15  C   UNL     1     -27.488  12.666  -9.687  0.00  0.00    +0.000 A 
ATOM     16  O   UNL     1     -27.061  12.742  -8.369  0.00  0.00    +0.000 OA
ATOM     17  C   UNL     1     -27.400  11.529 -10.454  0.00  0.00    +0.000 A 
ENDBRANCH   9  10
ENDBRANCH   7   8
BRANCH   1  18
ATOM     18  O   UNL     1     -26.506   8.313 -10.253  0.00  0.00    +0.000 OA
BRANCH  18  19
ATOM     19  C   UNL     1     -25.780   8.240  -9.098  0.00  0.00    +0.000 C 
BRANCH  19  22
ATOM     20  C   UNL     1     -27.532   8.915  -6.227  0.00  0.00    +0.000 C 
ATOM     21  O   UNL     1     -27.118   7.780  -7.213  0.00  0.00    +0.000 OA
ATOM     22  C   UNL     1     -26.593   9.047  -7.891  0.00  0.00    +0.000 C 
ATOM     23  C   UNL     1     -25.157   9.054  -6.917  0.00  0.00    +0.000 C 
ATOM     24  O   UNL     1     -25.272  10.545  -6.673  0.00  0.00    +0.000 OA
ATOM     25  C   UNL     1     -24.706  10.452  -5.396  0.00  0.00    +0.000 C 
ATOM     26  C   UNL     1     -23.627   9.385  -5.339  0.00  0.00    +0.000 C 
ATOM     27  C   UNL     1     -24.155  11.698  -4.846  0.00  0.00    +0.000 C 
ATOM     28  O   UNL     1     -25.909  10.039  -4.894  0.00  0.00    +0.000 OA
ATOM     29  C   UNL     1     -25.977   8.647  -5.467  0.00  0.00    +0.000 C 
BRANCH  20  31
ATOM     30  C   UNL     1     -29.371   8.085  -5.509  0.00  0.00    +0.000 C 
ATOM     31  O   UNL     1     -28.227   7.898  -5.274  0.00  0.00    +0.000 OA
ENDBRANCH  20  31
ENDBRANCH  19  22
ENDBRANCH  18  19
ENDBRANCH   1  18
TORSDOF 6
ENDMDL
MODEL 7
REMARK VINA RESULT:      -7.0     20.896     23.737
REMARK  Name = 
REMARK  6 active torsions:
REMARK  status: ('A' for Active; 'I' for Inactive)
REMARK    1  A    between atoms: O_2  and  C_3
REMARK    2  A    between atoms: C_5  and  C_6
REMARK    3  A    between atoms: C_6  and  O_7
REMARK    4  A    between atoms: O_7  and  C_8
REMARK    5  A    between atoms: C_14  and  C_15
REMARK    6  A    between atoms: C_16  and  C_17
REMARK                            x       y       z     vdW  Elec       q    Type
REMARK                         _______ _______ _______ _____ _____    ______ ____
ROOT
ATOM      1  C   UNL     1     -25.962  10.009  -7.154  0.00  0.00    +0.000 A 
ATOM      2  C   UNL     1     -25.202  10.322  -6.044  0.00  0.00    +0.000 A 
ATOM      3  C   UNL     1     -24.214   9.467  -5.593  0.00  0.00    +0.000 A 
ATOM      4  O   UNL     1     -23.807   9.412  -4.263  0.00  0.00    +0.000 OA
ATOM      5  C   UNL     1     -23.777   8.497  -6.489  0.00  0.00    +0.000 A 
ATOM      6  C   UNL     1     -24.693   8.045  -7.432  0.00  0.00    +0.000 A 
ATOM      7  C   UNL     1     -25.804   8.798  -7.792  0.00  0.00    +0.000 A 
ENDROOT
BRANCH   7   8
ATOM      8  C   UNL     1     -26.226   8.745  -9.199  0.00  0.00    +0.000 C 
ATOM      9  C   UNL     1     -25.941   7.785 -10.027  0.00  0.00    +0.000 C 
BRANCH   9  10
ATOM     10  C   UNL     1     -26.920   6.900 -10.680  0.00  0.00    +0.000 A 
ATOM     11  C   UNL     1     -27.232   5.649 -10.157  0.00  0.00    +0.000 A 
ATOM     12  C   UNL     1     -28.426   5.040 -10.533  0.00  0.00    +0.000 A 
ATOM     13  O   UNL     1     -28.632   3.673 -10.411  0.00  0.00    +0.000 OA
ATOM     14  C   UNL     1     -29.400   5.818 -11.135  0.00  0.00    +0.000 A 
ATOM     15  C   UNL     1     -29.151   7.089 -11.574  0.00  0.00    +0.000 A 
ATOM     16  O   UNL     1     -30.133   7.765 -12.285  0.00  0.00    +0.000 OA
ATOM     17  C   UNL     1     -27.818   7.424 -11.604  0.00  0.00    +0.000 A 
ENDBRANCH   9  10
ENDBRANCH   7   8
BRANCH   1  18
ATOM     18  O   UNL     1     -27.117  10.698  -7.434  0.00  0.00    +0.000 OA
BRANCH  18  19
ATOM     19  C   UNL     1     -27.269  12.017  -7.755  0.00  0.00    +0.000 C 
BRANCH  19  22
ATOM     20  C   UNL     1     -28.776  12.354 -10.818  0.00  0.00    +0.000 C 
ATOM     21  O   UNL     1     -29.029  11.991  -9.323  0.00  0.00    +0.000 OA
ATOM     22  C   UNL     1     -27.509  12.153  -9.396  0.00  0.00    +0.000 C 
ATOM     23  C   UNL     1     -27.618  13.879  -9.246  0.00  0.00    +0.000 C 
ATOM     24  O   UNL     1     -26.599  14.087 -10.348  0.00  0.00    +0.000 OA
ATOM     25  C   UNL     1     -27.198  15.277 -10.774  0.00  0.00    +0.000 C 
ATOM     26  C   UNL     1     -27.767  16.066  -9.608  0.00  0.00    +0.000 C 
ATOM     27  C   UNL     1     -26.348  16.175 -11.569  0.00  0.00    +0.000 C 
ATOM     28  O   UNL     1     -28.139  14.559 -11.458  0.00  0.00    +0.000 OA
ATOM     29  C   UNL     1     -28.954  14.021 -10.311  0.00  0.00    +0.000 C 
BRANCH  20  31
ATOM     30  C   UNL     1     -30.379  11.129 -11.536  0.00  0.00    +0.000 C 
ATOM     31  O   UNL     1     -30.294  12.243 -11.151  0.00  0.00    +0.000 OA
ENDBRANCH  20  31
ENDBRANCH  19  22
ENDBRANCH  18  19
ENDBRANCH   1  18
TORSDOF 6
ENDMDL
MODEL 8
REMARK VINA RESULT:      -6.9      3.180      4.980
REMARK  Name = 
REMARK  6 active torsions:
REMARK  status: ('A' for Active; 'I' for Inactive)
REMARK    1  A    between atoms: O_2  and  C_3
REMARK    2  A    between atoms: C_5  and  C_6
REMARK    3  A    between atoms: C_6  and  O_7
REMARK    4  A    between atoms: O_7  and  C_8
REMARK    5  A    between atoms: C_14  and  C_15
REMARK    6  A    between atoms: C_16  and  C_17
REMARK                            x       y       z     vdW  Elec       q    Type
REMARK                         _______ _______ _______ _____ _____    ______ ____
ROOT
ATOM      1  C   UNL     1     -20.473  -4.157   9.816  0.00  0.00    +0.000 A 
ATOM      2  C   UNL     1     -19.478  -5.093  10.020  0.00  0.00    +0.000 A 
ATOM      3  C   UNL     1     -19.771  -6.443  10.080  0.00  0.00    +0.000 A 
ATOM      4  O   UNL     1     -18.999  -7.355  10.794  0.00  0.00    +0.000 OA
ATOM      5  C   UNL     1     -21.003  -6.833   9.566  0.00  0.00    +0.000 A 
ATOM      6  C   UNL     1     -22.037  -5.907   9.625  0.00  0.00    +0.000 A 
ATOM      7  C   UNL     1     -21.793  -4.543   9.743  0.00  0.00    +0.000 A 
ENDROOT
BRANCH   7   8
ATOM      8  C   UNL     1     -22.699  -3.634   9.025  0.00  0.00    +0.000 C 
ATOM      9  C   UNL     1     -23.382  -3.944   7.965  0.00  0.00    +0.000 C 
BRANCH   9  10
ATOM     10  C   UNL     1     -24.851  -3.966   7.871  0.00  0.00    +0.000 A 
ATOM     11  C   UNL     1     -25.542  -5.124   7.526  0.00  0.00    +0.000 A 
ATOM     12  C   UNL     1     -26.891  -5.226   7.852  0.00  0.00    +0.000 A 
ATOM     13  O   UNL     1     -27.743  -6.115   7.212  0.00  0.00    +0.000 OA
ATOM     14  C   UNL     1     -27.411  -4.343   8.782  0.00  0.00    +0.000 A 
ATOM     15  C   UNL     1     -26.718  -3.247   9.216  0.00  0.00    +0.000 A 
ATOM     16  O   UNL     1     -27.348  -2.333  10.049  0.00  0.00    +0.000 OA
ATOM     17  C   UNL     1     -25.598  -2.959   8.473  0.00  0.00    +0.000 A 
ENDBRANCH   9  10
ENDBRANCH   7   8
BRANCH   1  18
ATOM     18  O   UNL     1     -20.242  -2.822  10.040  0.00  0.00    +0.000 OA
BRANCH  18  19
ATOM     19  C   UNL     1     -19.198  -2.051   9.611  0.00  0.00    +0.000 C 
BRANCH  19  22
ATOM     20  C   UNL     1     -19.886  -1.438   6.307  0.00  0.00    +0.000 C 
ATOM     21  O   UNL     1     -20.454  -1.321   7.755  0.00  0.00    +0.000 OA
ATOM     22  C   UNL     1     -19.144  -2.088   7.948  0.00  0.00    +0.000 C 
ATOM     23  C   UNL     1     -18.209  -0.625   7.939  0.00  0.00    +0.000 C 
ATOM     24  O   UNL     1     -17.165  -1.242   7.029  0.00  0.00    +0.000 OA
ATOM     25  C   UNL     1     -16.883  -0.020   6.408  0.00  0.00    +0.000 C 
ATOM     26  C   UNL     1     -16.977   1.139   7.383  0.00  0.00    +0.000 C 
ATOM     27  C   UNL     1     -15.590   0.063   5.714  0.00  0.00    +0.000 C 
ATOM     28  O   UNL     1     -17.992  -0.164   5.622  0.00  0.00    +0.000 OA
ATOM     29  C   UNL     1     -19.077   0.080   6.639  0.00  0.00    +0.000 C 
BRANCH  20  31
ATOM     30  C   UNL     1     -21.914  -1.579   5.634  0.00  0.00    +0.000 C 
ATOM     31  O   UNL     1     -21.124  -0.703   5.711  0.00  0.00    +0.000 OA
ENDBRANCH  20  31
ENDBRANCH  19  22
ENDBRANCH  18  19
ENDBRANCH   1  18
TORSDOF 6
ENDMDL
MODEL 9
REMARK VINA RESULT:      -6.9     15.806     18.925
REMARK  Name = 
REMARK  6 active torsions:
REMARK  status: ('A' for Active; 'I' for Inactive)
REMARK    1  A    between atoms: O_2  and  C_3
REMARK    2  A    between atoms: C_5  and  C_6
REMARK    3  A    between atoms: C_6  and  O_7
REMARK    4  A    between atoms: O_7  and  C_8
REMARK    5  A    between atoms: C_14  and  C_15
REMARK    6  A    between atoms: C_16  and  C_17
REMARK                            x       y       z     vdW  Elec       q    Type
REMARK                         _______ _______ _______ _____ _____    ______ ____
ROOT
ATOM      1  C   UNL     1     -24.989  10.401  -5.619  0.00  0.00    +0.000 A 
ATOM      2  C   UNL     1     -25.836  10.319  -6.707  0.00  0.00    +0.000 A 
ATOM      3  C   UNL     1     -25.692   9.317  -7.649  0.00  0.00    +0.000 A 
ATOM      4  O   UNL     1     -26.090   9.459  -8.975  0.00  0.00    +0.000 OA
ATOM      5  C   UNL     1     -24.933   8.216  -7.270  0.00  0.00    +0.000 A 
ATOM      6  C   UNL     1     -23.920   8.431  -6.343  0.00  0.00    +0.000 A 
ATOM      7  C   UNL     1     -23.931   9.528  -5.489  0.00  0.00    +0.000 A 
ENDROOT
BRANCH   7   8
ATOM      8  C   UNL     1     -23.421   9.323  -4.125  0.00  0.00    +0.000 C 
ATOM      9  C   UNL     1     -24.015   8.628  -3.203  0.00  0.00    +0.000 C 
BRANCH   9  10
ATOM     10  C   UNL     1     -23.482   7.408  -2.574  0.00  0.00    +0.000 A 
ATOM     11  C   UNL     1     -22.461   7.463  -1.630  0.00  0.00    +0.000 A 
ATOM     12  C   UNL     1     -22.281   6.383  -0.770  0.00  0.00    +0.000 A 
ATOM     13  O   UNL     1     -21.085   6.159  -0.102  0.00  0.00    +0.000 OA
ATOM     14  C   UNL     1     -23.303   5.457  -0.654  0.00  0.00    +0.000 A 
ATOM     15  C   UNL     1     -24.371   5.437  -1.508  0.00  0.00    +0.000 A 
ATOM     16  O   UNL     1     -25.292   4.403  -1.417  0.00  0.00    +0.000 OA
ATOM     17  C   UNL     1     -24.216   6.227  -2.622  0.00  0.00    +0.000 A 
ENDBRANCH   9  10
ENDBRANCH   7   8
BRANCH   1  18
ATOM     18  O   UNL     1     -24.939  11.537  -4.849  0.00  0.00    +0.000 OA
BRANCH  18  19
ATOM     19  C   UNL     1     -24.724  12.827  -5.242  0.00  0.00    +0.000 C 
BRANCH  19  22
ATOM     20  C   UNL     1     -22.575  13.646  -2.697  0.00  0.00    +0.000 C 
ATOM     21  O   UNL     1     -23.126  12.461  -3.548  0.00  0.00    +0.000 OA
ATOM     22  C   UNL     1     -23.969  13.652  -4.010  0.00  0.00    +0.000 C 
ATOM     23  C   UNL     1     -22.736  14.184  -5.110  0.00  0.00    +0.000 C 
ATOM     24  O   UNL     1     -22.907  15.627  -4.679  0.00  0.00    +0.000 OA
ATOM     25  C   UNL     1     -21.556  15.924  -4.890  0.00  0.00    +0.000 C 
ATOM     26  C   UNL     1     -20.996  15.168  -6.081  0.00  0.00    +0.000 C 
ATOM     27  C   UNL     1     -21.230  17.348  -5.052  0.00  0.00    +0.000 C 
ATOM     28  O   UNL     1     -21.243  15.356  -3.687  0.00  0.00    +0.000 OA
ATOM     29  C   UNL     1     -21.448  13.900  -4.013  0.00  0.00    +0.000 C 
BRANCH  20  31
ATOM     30  C   UNL     1     -22.297  11.904  -1.483  0.00  0.00    +0.000 C 
ATOM     31  O   UNL     1     -21.573  12.710  -1.957  0.00  0.00    +0.000 OA
ENDBRANCH  20  31
ENDBRANCH  19  22
ENDBRANCH  18  19
ENDBRANCH   1  18
TORSDOF 6
ENDMDL
MODEL 10
REMARK VINA RESULT:      -6.9     20.691     23.770
REMARK  Name = 
REMARK  6 active torsions:
REMARK  status: ('A' for Active; 'I' for Inactive)
REMARK    1  A    between atoms: O_2  and  C_3
REMARK    2  A    between atoms: C_5  and  C_6
REMARK    3  A    between atoms: C_6  and  O_7
REMARK    4  A    between atoms: O_7  and  C_8
REMARK    5  A    between atoms: C_14  and  C_15
REMARK    6  A    between atoms: C_16  and  C_17
REMARK                            x       y       z     vdW  Elec       q    Type
REMARK                         _______ _______ _______ _____ _____    ______ ____
ROOT
ATOM      1  C   UNL     1     -26.020  10.208  -7.354  0.00  0.00    +0.000 A 
ATOM      2  C   UNL     1     -25.263  10.500  -6.237  0.00  0.00    +0.000 A 
ATOM      3  C   UNL     1     -24.426   9.554  -5.675  0.00  0.00    +0.000 A 
ATOM      4  O   UNL     1     -24.080   9.552  -4.327  0.00  0.00    +0.000 OA
ATOM      5  C   UNL     1     -24.101   8.463  -6.473  0.00  0.00    +0.000 A 
ATOM      6  C   UNL     1     -25.037   8.069  -7.421  0.00  0.00    +0.000 A 
ATOM      7  C   UNL     1     -26.015   8.938  -7.890  0.00  0.00    +0.000 A 
ENDROOT
BRANCH   7   8
ATOM      8  C   UNL     1     -26.388   8.829  -9.308  0.00  0.00    +0.000 C 
ATOM      9  C   UNL     1     -26.045   7.856 -10.097  0.00  0.00    +0.000 C 
BRANCH   9  10
ATOM     10  C   UNL     1     -26.972   6.920 -10.753  0.00  0.00    +0.000 A 
ATOM     11  C   UNL     1     -27.287   5.689 -10.185  0.00  0.00    +0.000 A 
ATOM     12  C   UNL     1     -28.448   5.037 -10.591  0.00  0.00    +0.000 A 
ATOM     13  O   UNL     1     -28.634   3.673 -10.411  0.00  0.00    +0.000 OA
ATOM     14  C   UNL     1     -29.404   5.764 -11.278  0.00  0.00    +0.000 A 
ATOM     15  C   UNL     1     -29.158   7.017 -11.767  0.00  0.00    +0.000 A 
ATOM     16  O   UNL     1     -30.114   7.636 -12.558  0.00  0.00    +0.000 OA
ATOM     17  C   UNL     1     -27.832   7.379 -11.746  0.00  0.00    +0.000 A 
ENDBRANCH   9  10
ENDBRANCH   7   8
BRANCH   1  18
ATOM     18  O   UNL     1     -27.053  11.027  -7.741  0.00  0.00    +0.000 OA
BRANCH  18  19
ATOM     19  C   UNL     1     -28.395  10.855  -7.554  0.00  0.00    +0.000 C 
BRANCH  19  22
ATOM     20  C   UNL     1     -29.416  12.240 -10.523  0.00  0.00    +0.000 C 
ATOM     21  O   UNL     1     -28.252  11.471  -9.825  0.00  0.00    +0.000 OA
ATOM     22  C   UNL     1     -29.220  11.765  -8.677  0.00  0.00    +0.000 C 
ATOM     23  C   UNL     1     -30.210  10.395  -9.072  0.00  0.00    +0.000 C 
ATOM     24  O   UNL     1     -31.481  11.203  -8.902  0.00  0.00    +0.000 OA
ATOM     25  C   UNL     1     -32.159  10.476  -9.887  0.00  0.00    +0.000 C 
ATOM     26  C   UNL     1     -31.750   9.014  -9.885  0.00  0.00    +0.000 C 
ATOM     27  C   UNL     1     -33.626  10.546  -9.840  0.00  0.00    +0.000 C 
ATOM     28  O   UNL     1     -31.540  11.214 -10.857  0.00  0.00    +0.000 OA
ATOM     29  C   UNL     1     -30.141  10.664 -10.765  0.00  0.00    +0.000 C 
BRANCH  20  31
ATOM     30  C   UNL     1     -28.260  13.268 -12.003  0.00  0.00    +0.000 C 
ATOM     31  O   UNL     1     -28.696  12.173 -11.903  0.00  0.00    +0.000 OA
ENDBRANCH  20  31
ENDBRANCH  19  22
ENDBRANCH  18  19
ENDBRANCH   1  18
TORSDOF 6
ENDMDL
