MODEL 1
REMARK VINA RESULT:      -7.4      0.000      0.000
REMARK  Name = 
REMARK  5 active torsions:
REMARK  status: ('A' for Active; 'I' for Inactive)
REMARK    1  A    between atoms: C_5  and  C_6
REMARK    2  A    between atoms: C_7  and  C_8
REMARK    3  A    between atoms: C_16  and  O_17
REMARK    4  A    between atoms: O_17  and  C_18
REMARK    5  A    between atoms: N_21  and  C_22
REMARK                            x       y       z     vdW  Elec       q    Type
REMARK                         _______ _______ _______ _____ _____    ______ ____
ROOT
ATOM      1  O   UNL     1     -26.027  10.036  -4.943  0.00  0.00    +0.000 OA
ATOM      2  C   UNL     1     -25.678   9.875  -6.289  0.00  0.00    +0.000 A 
ATOM      3  C   UNL     1     -24.646   9.020  -6.657  0.00  0.00    +0.000 A 
ATOM      4  C   UNL     1     -24.781   8.177  -7.753  0.00  0.00    +0.000 A 
ATOM      5  C   UNL     1     -25.864   8.291  -8.615  0.00  0.00    +0.000 A 
ATOM      6  C   UNL     1     -26.686   9.390  -8.415  0.00  0.00    +0.000 A 
ATOM      7  C   UNL     1     -26.565  10.205  -7.306  0.00  0.00    +0.000 A 
ENDROOT
BRANCH   5   8
ATOM      8  C   UNL     1     -26.384   7.048  -9.201  0.00  0.00    +0.000 C 
ATOM      9  C   UNL     1     -26.390   6.805 -10.492  0.00  0.00    +0.000 C 
BRANCH   9  10
ATOM     10  C   UNL     1     -27.595   6.416 -11.238  0.00  0.00    +0.000 A 
ATOM     11  C   UNL     1     -28.399   5.377 -10.786  0.00  0.00    +0.000 A 
ATOM     12  C   UNL     1     -29.767   5.361 -10.972  0.00  0.00    +0.000 A 
ATOM     13  O   UNL     1     -30.555   4.514 -10.185  0.00  0.00    +0.000 OA
ATOM     14  C   UNL     1     -30.404   6.502 -11.424  0.00  0.00    +0.000 A 
ATOM     15  C   UNL     1     -29.640   7.454 -12.040  0.00  0.00    +0.000 A 
ATOM     16  O   UNL     1     -30.300   8.480 -12.714  0.00  0.00    +0.000 OA
ATOM     17  C   UNL     1     -28.258   7.436 -11.911  0.00  0.00    +0.000 A 
ENDBRANCH   9  10
ENDBRANCH   5   8
BRANCH   6  18
ATOM     18  O   UNL     1     -27.656   9.601  -9.401  0.00  0.00    +0.000 OA
BRANCH  18  19
ATOM     19  C   UNL     1     -28.987   9.793  -8.929  0.00  0.00    +0.000 C 
ATOM     20  C   UNL     1     -29.757  10.413 -10.059  0.00  0.00    +0.000 C 
ATOM     21  C   UNL     1     -31.226  10.513  -9.674  0.00  0.00    +0.000 C 
ATOM     22  N   UNL     1     -31.658   9.149  -9.389  0.00  0.00    +0.000 N 
ATOM     23  C   UNL     1     -30.995   8.387  -8.365  0.00  0.00    +0.000 C 
ATOM     24  C   UNL     1     -29.503   8.442  -8.523  0.00  0.00    +0.000 C 
BRANCH  22  25
ATOM     25  C   UNL     1     -33.005   8.831  -9.708  0.00  0.00    +0.000 A 
ATOM     26  C   UNL     1     -33.461   9.018 -11.007  0.00  0.00    +0.000 A 
ATOM     27  C   UNL     1     -34.752   8.571 -11.252  0.00  0.00    +0.000 A 
ATOM     28 CL   UNL     1     -35.603   8.920 -12.734  0.00  0.00    +0.000 Cl
ATOM     29  N   UNL     1     -35.414   7.832 -10.328  0.00  0.00    +0.000 NA
ATOM     30  C   UNL     1     -34.947   7.694  -9.082  0.00  0.00    +0.000 A 
ATOM     31  N   UNL     1     -33.702   8.103  -8.810  0.00  0.00    +0.000 NA
ENDBRANCH  22  25
ENDBRANCH  18  19
ENDBRANCH   6  18
TORSDOF 5
ENDMDL
MODEL 2
REMARK VINA RESULT:      -6.9      2.821      3.577
REMARK  Name = 
REMARK  5 active torsions:
REMARK  status: ('A' for Active; 'I' for Inactive)
REMARK    1  A    between atoms: C_5  and  C_6
REMARK    2  A    between atoms: C_7  and  C_8
REMARK    3  A    between atoms: C_16  and  O_17
REMARK    4  A    between atoms: O_17  and  C_18
REMARK    5  A    between atoms: N_21  and  C_22
REMARK                            x       y       z     vdW  Elec       q    Type
REMARK                         _______ _______ _______ _____ _____    ______ ____
ROOT
ATOM      1  O   UNL     1     -28.245  12.930  -7.770  0.00  0.00    +0.000 OA
ATOM      2  C   UNL     1     -28.509  12.413  -9.044  0.00  0.00    +0.000 A 
ATOM      3  C   UNL     1     -27.484  12.240  -9.966  0.00  0.00    +0.000 A 
ATOM      4  C   UNL     1     -27.416  11.089 -10.741  0.00  0.00    +0.000 A 
ATOM      5  C   UNL     1     -28.457  10.170 -10.753  0.00  0.00    +0.000 A 
ATOM      6  C   UNL     1     -29.614  10.556 -10.094  0.00  0.00    +0.000 A 
ATOM      7  C   UNL     1     -29.665  11.685  -9.299  0.00  0.00    +0.000 A 
ENDROOT
BRANCH   5   8
ATOM      8  C   UNL     1     -28.095   8.753 -10.887  0.00  0.00    +0.000 C 
ATOM      9  C   UNL     1     -28.340   8.043 -11.965  0.00  0.00    +0.000 C 
BRANCH   9  10
ATOM     10  C   UNL     1     -29.064   6.764 -11.947  0.00  0.00    +0.000 A 
ATOM     11  C   UNL     1     -28.448   5.612 -11.476  0.00  0.00    +0.000 A 
ATOM     12  C   UNL     1     -29.142   4.611 -10.825  0.00  0.00    +0.000 A 
ATOM     13  O   UNL     1     -28.438   3.682 -10.051  0.00  0.00    +0.000 OA
ATOM     14  C   UNL     1     -30.446   4.839 -10.425  0.00  0.00    +0.000 A 
ATOM     15  C   UNL     1     -31.124   5.865 -11.025  0.00  0.00    +0.000 A 
ATOM     16  O   UNL     1     -32.499   5.944 -10.815  0.00  0.00    +0.000 OA
ATOM     17  C   UNL     1     -30.436   6.838 -11.737  0.00  0.00    +0.000 A 
ENDBRANCH   9  10
ENDBRANCH   5   8
BRANCH   6  18
ATOM     18  O   UNL     1     -30.716   9.713 -10.272  0.00  0.00    +0.000 OA
BRANCH  18  19
ATOM     19  C   UNL     1     -31.515   9.484  -9.114  0.00  0.00    +0.000 C 
ATOM     20  C   UNL     1     -32.931   9.337  -9.592  0.00  0.00    +0.000 C 
ATOM     21  C   UNL     1     -33.820   8.944  -8.421  0.00  0.00    +0.000 C 
ATOM     22  N   UNL     1     -33.275   7.694  -7.906  0.00  0.00    +0.000 N 
ATOM     23  C   UNL     1     -31.912   7.642  -7.448  0.00  0.00    +0.000 C 
ATOM     24  C   UNL     1     -30.975   8.249  -8.452  0.00  0.00    +0.000 C 
BRANCH  22  25
ATOM     25  C   UNL     1     -34.208   6.768  -7.367  0.00  0.00    +0.000 A 
ATOM     26  C   UNL     1     -35.538   6.833  -7.762  0.00  0.00    +0.000 A 
ATOM     27  C   UNL     1     -36.351   5.819  -7.275  0.00  0.00    +0.000 A 
ATOM     28 CL   UNL     1     -38.087   5.840  -7.447  0.00  0.00    +0.000 Cl
ATOM     29  N   UNL     1     -35.815   4.753  -6.632  0.00  0.00    +0.000 NA
ATOM     30  C   UNL     1     -34.532   4.741  -6.254  0.00  0.00    +0.000 A 
ATOM     31  N   UNL     1     -33.714   5.696  -6.711  0.00  0.00    +0.000 NA
ENDBRANCH  22  25
ENDBRANCH  18  19
ENDBRANCH   6  18
TORSDOF 5
ENDMDL
MODEL 3
REMARK VINA RESULT:      -6.7     18.806     20.403
REMARK  Name = 
REMARK  5 active torsions:
REMARK  status: ('A' for Active; 'I' for Inactive)
REMARK    1  A    between atoms: C_5  and  C_6
REMARK    2  A    between atoms: C_7  and  C_8
REMARK    3  A    between atoms: C_16  and  O_17
REMARK    4  A    between atoms: O_17  and  C_18
REMARK    5  A    between atoms: N_21  and  C_22
REMARK                            x       y       z     vdW  Elec       q    Type
REMARK                         _______ _______ _______ _____ _____    ______ ____
ROOT
ATOM      1  O   UNL     1     -12.390  21.028   0.484  0.00  0.00    +0.000 OA
ATOM      2  C   UNL     1     -13.417  20.132   0.803  0.00  0.00    +0.000 A 
ATOM      3  C   UNL     1     -14.749  20.511   0.687  0.00  0.00    +0.000 A 
ATOM      4  C   UNL     1     -15.687  19.646   0.138  0.00  0.00    +0.000 A 
ATOM      5  C   UNL     1     -15.365  18.324  -0.140  0.00  0.00    +0.000 A 
ATOM      6  C   UNL     1     -14.131  17.889   0.320  0.00  0.00    +0.000 A 
ATOM      7  C   UNL     1     -13.192  18.762   0.836  0.00  0.00    +0.000 A 
ENDROOT
BRANCH   5   8
ATOM      8  C   UNL     1     -15.991  17.720  -1.324  0.00  0.00    +0.000 C 
ATOM      9  C   UNL     1     -15.306  17.232  -2.334  0.00  0.00    +0.000 C 
BRANCH   9  10
ATOM     10  C   UNL     1     -15.523  17.634  -3.731  0.00  0.00    +0.000 A 
ATOM     11  C   UNL     1     -16.136  18.845  -4.027  0.00  0.00    +0.000 A 
ATOM     12  C   UNL     1     -15.816  19.586  -5.148  0.00  0.00    +0.000 A 
ATOM     13  O   UNL     1     -16.168  20.938  -5.198  0.00  0.00    +0.000 OA
ATOM     14  C   UNL     1     -14.703  19.241  -5.893  0.00  0.00    +0.000 A 
ATOM     15  C   UNL     1     -14.202  17.978  -5.740  0.00  0.00    +0.000 A 
ATOM     16  O   UNL     1     -13.248  17.543  -6.658  0.00  0.00    +0.000 OA
ATOM     17  C   UNL     1     -14.573  17.204  -4.649  0.00  0.00    +0.000 A 
ENDBRANCH   9  10
ENDBRANCH   5   8
BRANCH   6  18
ATOM     18  O   UNL     1     -13.898  16.515   0.206  0.00  0.00    +0.000 OA
BRANCH  18  19
ATOM     19  C   UNL     1     -14.112  15.750   1.389  0.00  0.00    +0.000 C 
ATOM     20  C   UNL     1     -15.187  14.752   1.066  0.00  0.00    +0.000 C 
ATOM     21  C   UNL     1     -15.365  13.803   2.242  0.00  0.00    +0.000 C 
ATOM     22  N   UNL     1     -14.066  13.174   2.449  0.00  0.00    +0.000 N 
ATOM     23  C   UNL     1     -12.912  13.989   2.723  0.00  0.00    +0.000 C 
ATOM     24  C   UNL     1     -12.796  15.120   1.744  0.00  0.00    +0.000 C 
BRANCH  22  25
ATOM     25  C   UNL     1     -14.077  11.833   2.917  0.00  0.00    +0.000 A 
ATOM     26  C   UNL     1     -15.095  10.979   2.510  0.00  0.00    +0.000 A 
ATOM     27  C   UNL     1     -14.960   9.659   2.922  0.00  0.00    +0.000 A 
ATOM     28 CL   UNL     1     -16.231   8.480   2.730  0.00  0.00    +0.000 Cl
ATOM     29  N   UNL     1     -13.812   9.231   3.502  0.00  0.00    +0.000 NA
ATOM     30  C   UNL     1     -12.866  10.091   3.894  0.00  0.00    +0.000 A 
ATOM     31  N   UNL     1     -12.956  11.370   3.508  0.00  0.00    +0.000 NA
ENDBRANCH  22  25
ENDBRANCH  18  19
ENDBRANCH   6  18
TORSDOF 5
ENDMDL
MODEL 4
REMARK VINA RESULT:      -6.6     28.153     31.174
REMARK  Name = 
REMARK  5 active torsions:
REMARK  status: ('A' for Active; 'I' for Inactive)
REMARK    1  A    between atoms: C_5  and  C_6
REMARK    2  A    between atoms: C_7  and  C_8
REMARK    3  A    between atoms: C_16  and  O_17
REMARK    4  A    between atoms: O_17  and  C_18
REMARK    5  A    between atoms: N_21  and  C_22
REMARK                            x       y       z     vdW  Elec       q    Type
REMARK                         _______ _______ _______ _____ _____    ______ ____
ROOT
ATOM      1  O   UNL     1      -3.651   6.094  -8.160  0.00  0.00    +0.000 OA
ATOM      2  C   UNL     1      -2.331   5.662  -8.328  0.00  0.00    +0.000 A 
ATOM      3  C   UNL     1      -1.266   6.475  -7.958  0.00  0.00    +0.000 A 
ATOM      4  C   UNL     1      -0.170   5.946  -7.289  0.00  0.00    +0.000 A 
ATOM      5  C   UNL     1      -0.019   4.574  -7.133  0.00  0.00    +0.000 A 
ATOM      6  C   UNL     1      -0.921   3.782  -7.827  0.00  0.00    +0.000 A 
ATOM      7  C   UNL     1      -2.027   4.313  -8.464  0.00  0.00    +0.000 A 
ENDROOT
BRANCH   5   8
ATOM      8  C   UNL     1       0.598   4.108  -5.884  0.00  0.00    +0.000 C 
ATOM      9  C   UNL     1       0.059   4.290  -4.699  0.00  0.00    +0.000 C 
BRANCH   9  10
ATOM     10  C   UNL     1       0.766   4.920  -3.575  0.00  0.00    +0.000 A 
ATOM     11  C   UNL     1       1.672   5.949  -3.801  0.00  0.00    +0.000 A 
ATOM     12  C   UNL     1       1.863   6.981  -2.904  0.00  0.00    +0.000 A 
ATOM     13  O   UNL     1       2.480   8.159  -3.338  0.00  0.00    +0.000 OA
ATOM     14  C   UNL     1       0.982   7.135  -1.849  0.00  0.00    +0.000 A 
ATOM     15  C   UNL     1       0.214   6.058  -1.501  0.00  0.00    +0.000 A 
ATOM     16  O   UNL     1      -0.484   6.121  -0.297  0.00  0.00    +0.000 OA
ATOM     17  C   UNL     1       0.073   4.987  -2.373  0.00  0.00    +0.000 A 
ENDBRANCH   9  10
ENDBRANCH   5   8
BRANCH   6  18
ATOM     18  O   UNL     1      -0.646   2.411  -7.818  0.00  0.00    +0.000 OA
BRANCH  18  19
ATOM     19  C   UNL     1      -0.823   1.736  -9.062  0.00  0.00    +0.000 C 
ATOM     20  C   UNL     1       0.512   1.751  -9.751  0.00  0.00    +0.000 C 
ATOM     21  C   UNL     1       0.432   0.919 -11.023  0.00  0.00    +0.000 C 
ATOM     22  N   UNL     1       0.040  -0.420 -10.601  0.00  0.00    +0.000 N 
ATOM     23  C   UNL     1      -1.192  -0.612  -9.883  0.00  0.00    +0.000 C 
ATOM     24  C   UNL     1      -1.315   0.354  -8.741  0.00  0.00    +0.000 C 
BRANCH  22  25
ATOM     25  C   UNL     1       0.559  -1.503 -11.360  0.00  0.00    +0.000 A 
ATOM     26  C   UNL     1      -0.143  -2.700 -11.406  0.00  0.00    +0.000 A 
ATOM     27  C   UNL     1       0.379  -3.660 -12.264  0.00  0.00    +0.000 A 
ATOM     28 CL   UNL     1      -0.199  -5.305 -12.297  0.00  0.00    +0.000 Cl
ATOM     29  N   UNL     1       1.379  -3.347 -13.123  0.00  0.00    +0.000 NA
ATOM     30  C   UNL     1       2.041  -2.188 -13.030  0.00  0.00    +0.000 A 
ATOM     31  N   UNL     1       1.563  -1.234 -12.222  0.00  0.00    +0.000 NA
ENDBRANCH  22  25
ENDBRANCH  18  19
ENDBRANCH   6  18
TORSDOF 5
ENDMDL
MODEL 5
REMARK VINA RESULT:      -6.4     28.578     31.496
REMARK  Name = 
REMARK  5 active torsions:
REMARK  status: ('A' for Active; 'I' for Inactive)
REMARK    1  A    between atoms: C_5  and  C_6
REMARK    2  A    between atoms: C_7  and  C_8
REMARK    3  A    between atoms: C_16  and  O_17
REMARK    4  A    between atoms: O_17  and  C_18
REMARK    5  A    between atoms: N_21  and  C_22
REMARK                            x       y       z     vdW  Elec       q    Type
REMARK                         _______ _______ _______ _____ _____    ______ ____
ROOT
ATOM      1  O   UNL     1       2.484  -3.668 -12.358  0.00  0.00    +0.000 OA
ATOM      2  C   UNL     1       1.137  -3.826 -12.011  0.00  0.00    +0.000 A 
ATOM      3  C   UNL     1       0.616  -5.086 -11.746  0.00  0.00    +0.000 A 
ATOM      4  C   UNL     1      -0.246  -5.285 -10.674  0.00  0.00    +0.000 A 
ATOM      5  C   UNL     1      -0.755  -4.211  -9.956  0.00  0.00    +0.000 A 
ATOM      6  C   UNL     1      -0.492  -2.953 -10.476  0.00  0.00    +0.000 A 
ATOM      7  C   UNL     1       0.391  -2.761 -11.521  0.00  0.00    +0.000 A 
ENDROOT
BRANCH   5   8
ATOM      8  C   UNL     1      -0.960  -4.411  -8.514  0.00  0.00    +0.000 C 
ATOM      9  C   UNL     1       0.020  -4.642  -7.670  0.00  0.00    +0.000 C 
BRANCH   9  10
ATOM     10  C   UNL     1       0.046  -5.789  -6.752  0.00  0.00    +0.000 A 
ATOM     11  C   UNL     1       0.711  -5.702  -5.535  0.00  0.00    +0.000 A 
ATOM     12  C   UNL     1       0.284  -6.372  -4.405  0.00  0.00    +0.000 A 
ATOM     13  O   UNL     1       0.744  -5.959  -3.151  0.00  0.00    +0.000 OA
ATOM     14  C   UNL     1      -0.961  -6.976  -4.405  0.00  0.00    +0.000 A 
ATOM     15  C   UNL     1      -1.542  -7.233  -5.615  0.00  0.00    +0.000 A 
ATOM     16  O   UNL     1      -2.665  -8.057  -5.633  0.00  0.00    +0.000 OA
ATOM     17  C   UNL     1      -1.072  -6.613  -6.765  0.00  0.00    +0.000 A 
ENDBRANCH   9  10
ENDBRANCH   5   8
BRANCH   6  18
ATOM     18  O   UNL     1      -1.166  -1.895  -9.857  0.00  0.00    +0.000 OA
BRANCH  18  19
ATOM     19  C   UNL     1      -0.404  -0.707  -9.661  0.00  0.00    +0.000 C 
ATOM     20  C   UNL     1      -1.097   0.379 -10.434  0.00  0.00    +0.000 C 
ATOM     21  C   UNL     1      -0.418   1.712 -10.151  0.00  0.00    +0.000 C 
ATOM     22  N   UNL     1      -0.510   1.910  -8.710  0.00  0.00    +0.000 N 
ATOM     23  C   UNL     1       0.061   0.938  -7.816  0.00  0.00    +0.000 C 
ATOM     24  C   UNL     1      -0.362  -0.455  -8.181  0.00  0.00    +0.000 C 
BRANCH  22  25
ATOM     25  C   UNL     1      -0.642   3.251  -8.260  0.00  0.00    +0.000 A 
ATOM     26  C   UNL     1      -1.811   3.949  -8.533  0.00  0.00    +0.000 A 
ATOM     27  C   UNL     1      -1.897   5.209  -7.956  0.00  0.00    +0.000 A 
ATOM     28 CL   UNL     1      -3.159   6.344  -8.360  0.00  0.00    +0.000 Cl
ATOM     29  N   UNL     1      -0.983   5.613  -7.040  0.00  0.00    +0.000 NA
ATOM     30  C   UNL     1       0.138   4.918  -6.823  0.00  0.00    +0.000 A 
ATOM     31  N   UNL     1       0.254   3.695  -7.353  0.00  0.00    +0.000 NA
ENDBRANCH  22  25
ENDBRANCH  18  19
ENDBRANCH   6  18
TORSDOF 5
ENDMDL
MODEL 6
REMARK VINA RESULT:      -6.3     12.768     15.359
REMARK  Name = 
REMARK  5 active torsions:
REMARK  status: ('A' for Active; 'I' for Inactive)
REMARK    1  A    between atoms: C_5  and  C_6
REMARK    2  A    between atoms: C_7  and  C_8
REMARK    3  A    between atoms: C_16  and  O_17
REMARK    4  A    between atoms: O_17  and  C_18
REMARK    5  A    between atoms: N_21  and  C_22
REMARK                            x       y       z     vdW  Elec       q    Type
REMARK                         _______ _______ _______ _____ _____    ______ ____
ROOT
ATOM      1  O   UNL     1     -32.438   4.571   3.005  0.00  0.00    +0.000 OA
ATOM      2  C   UNL     1     -31.486   4.220   3.969  0.00  0.00    +0.000 A 
ATOM      3  C   UNL     1     -31.592   3.022   4.666  0.00  0.00    +0.000 A 
ATOM      4  C   UNL     1     -30.471   2.234   4.895  0.00  0.00    +0.000 A 
ATOM      5  C   UNL     1     -29.196   2.700   4.600  0.00  0.00    +0.000 A 
ATOM      6  C   UNL     1     -29.106   4.035   4.238  0.00  0.00    +0.000 A 
ATOM      7  C   UNL     1     -30.226   4.803   3.982  0.00  0.00    +0.000 A 
ENDROOT
BRANCH   5   8
ATOM      8  C   UNL     1     -28.221   1.713   4.115  0.00  0.00    +0.000 C 
ATOM      9  C   UNL     1     -28.493   0.434   3.981  0.00  0.00    +0.000 C 
BRANCH   9  10
ATOM     10  C   UNL     1     -27.686  -0.634   4.587  0.00  0.00    +0.000 A 
ATOM     11  C   UNL     1     -26.525  -1.079   3.967  0.00  0.00    +0.000 A 
ATOM     12  C   UNL     1     -25.428  -1.528   4.675  0.00  0.00    +0.000 A 
ATOM     13  O   UNL     1     -24.185  -1.596   4.040  0.00  0.00    +0.000 OA
ATOM     14  C   UNL     1     -25.378  -1.332   6.043  0.00  0.00    +0.000 A 
ATOM     15  C   UNL     1     -26.555  -1.075   6.692  0.00  0.00    +0.000 A 
ATOM     16  O   UNL     1     -26.553  -1.125   8.084  0.00  0.00    +0.000 OA
ATOM     17  C   UNL     1     -27.680  -0.688   5.976  0.00  0.00    +0.000 A 
ENDBRANCH   9  10
ENDBRANCH   5   8
BRANCH   6  18
ATOM     18  O   UNL     1     -27.807   4.541   4.130  0.00  0.00    +0.000 OA
BRANCH  18  19
ATOM     19  C   UNL     1     -27.541   5.325   2.969  0.00  0.00    +0.000 C 
ATOM     20  C   UNL     1     -26.366   6.199   3.301  0.00  0.00    +0.000 C 
ATOM     21  C   UNL     1     -25.936   6.960   2.055  0.00  0.00    +0.000 C 
ATOM     22  N   UNL     1     -25.610   5.945   1.060  0.00  0.00    +0.000 N 
ATOM     23  C   UNL     1     -26.608   4.990   0.658  0.00  0.00    +0.000 C 
ATOM     24  C   UNL     1     -27.274   4.362   1.848  0.00  0.00    +0.000 C 
BRANCH  22  25
ATOM     25  C   UNL     1     -24.567   6.261   0.149  0.00  0.00    +0.000 A 
ATOM     26  C   UNL     1     -24.870   6.454  -1.193  0.00  0.00    +0.000 A 
ATOM     27  C   UNL     1     -23.809   6.873  -1.986  0.00  0.00    +0.000 A 
ATOM     28 CL   UNL     1     -23.906   6.942  -3.726  0.00  0.00    +0.000 Cl
ATOM     29  N   UNL     1     -22.634   7.249  -1.424  0.00  0.00    +0.000 NA
ATOM     30  C   UNL     1     -22.379   7.028  -0.130  0.00  0.00    +0.000 A 
ATOM     31  N   UNL     1     -23.378   6.634   0.668  0.00  0.00    +0.000 NA
ENDBRANCH  22  25
ENDBRANCH  18  19
ENDBRANCH   6  18
TORSDOF 5
ENDMDL
MODEL 7
REMARK VINA RESULT:      -5.8     11.595     14.391
REMARK  Name = 
REMARK  5 active torsions:
REMARK  status: ('A' for Active; 'I' for Inactive)
REMARK    1  A    between atoms: C_5  and  C_6
REMARK    2  A    between atoms: C_7  and  C_8
REMARK    3  A    between atoms: C_16  and  O_17
REMARK    4  A    between atoms: O_17  and  C_18
REMARK    5  A    between atoms: N_21  and  C_22
REMARK                            x       y       z     vdW  Elec       q    Type
REMARK                         _______ _______ _______ _____ _____    ______ ____
ROOT
ATOM      1  O   UNL     1     -36.527  -7.643  -6.619  0.00  0.00    +0.000 OA
ATOM      2  C   UNL     1     -36.396  -7.132  -5.323  0.00  0.00    +0.000 A 
ATOM      3  C   UNL     1     -35.332  -7.514  -4.515  0.00  0.00    +0.000 A 
ATOM      4  C   UNL     1     -34.653  -6.576  -3.747  0.00  0.00    +0.000 A 
ATOM      5  C   UNL     1     -35.126  -5.276  -3.620  0.00  0.00    +0.000 A 
ATOM      6  C   UNL     1     -36.383  -5.033  -4.154  0.00  0.00    +0.000 A 
ATOM      7  C   UNL     1     -37.037  -5.960  -4.943  0.00  0.00    +0.000 A 
ENDROOT
BRANCH   5   8
ATOM      8  C   UNL     1     -34.123  -4.208  -3.520  0.00  0.00    +0.000 C 
ATOM      9  C   UNL     1     -33.278  -3.918  -4.484  0.00  0.00    +0.000 C 
BRANCH   9  10
ATOM     10  C   UNL     1     -31.822  -3.856  -4.295  0.00  0.00    +0.000 A 
ATOM     11  C   UNL     1     -31.190  -4.716  -3.405  0.00  0.00    +0.000 A 
ATOM     12  C   UNL     1     -29.910  -5.192  -3.613  0.00  0.00    +0.000 A 
ATOM     13  O   UNL     1     -29.479  -6.323  -2.912  0.00  0.00    +0.000 OA
ATOM     14  C   UNL     1     -29.305  -4.996  -4.841  0.00  0.00    +0.000 A 
ATOM     15  C   UNL     1     -29.812  -4.016  -5.650  0.00  0.00    +0.000 A 
ATOM     16  O   UNL     1     -29.065  -3.645  -6.765  0.00  0.00    +0.000 OA
ATOM     17  C   UNL     1     -31.072  -3.487  -5.405  0.00  0.00    +0.000 A 
ENDBRANCH   9  10
ENDBRANCH   5   8
BRANCH   6  18
ATOM     18  O   UNL     1     -36.929  -3.781  -3.855  0.00  0.00    +0.000 OA
BRANCH  18  19
ATOM     19  C   UNL     1     -37.468  -3.061  -4.961  0.00  0.00    +0.000 C 
ATOM     20  C   UNL     1     -38.717  -2.388  -4.468  0.00  0.00    +0.000 C 
ATOM     21  C   UNL     1     -39.266  -1.481  -5.560  0.00  0.00    +0.000 C 
ATOM     22  N   UNL     1     -38.204  -0.529  -5.861  0.00  0.00    +0.000 N 
ATOM     23  C   UNL     1     -36.920  -1.005  -6.303  0.00  0.00    +0.000 C 
ATOM     24  C   UNL     1     -36.406  -2.098  -5.411  0.00  0.00    +0.000 C 
BRANCH  22  25
ATOM     25  C   UNL     1     -38.612   0.777  -6.242  0.00  0.00    +0.000 A 
ATOM     26  C   UNL     1     -39.934   1.160  -6.054  0.00  0.00    +0.000 A 
ATOM     27  C   UNL     1     -40.213   2.489  -6.347  0.00  0.00    +0.000 A 
ATOM     28 CL   UNL     1     -41.840   3.115  -6.411  0.00  0.00    +0.000 Cl
ATOM     29  N   UNL     1     -39.211   3.365  -6.599  0.00  0.00    +0.000 NA
ATOM     30  C   UNL     1     -37.954   2.950  -6.791  0.00  0.00    +0.000 A 
ATOM     31  N   UNL     1     -37.644   1.679  -6.511  0.00  0.00    +0.000 NA
ENDBRANCH  22  25
ENDBRANCH  18  19
ENDBRANCH   6  18
TORSDOF 5
ENDMDL
MODEL 8
REMARK VINA RESULT:      -5.8     29.928     33.337
REMARK  Name = 
REMARK  5 active torsions:
REMARK  status: ('A' for Active; 'I' for Inactive)
REMARK    1  A    between atoms: C_5  and  C_6
REMARK    2  A    between atoms: C_7  and  C_8
REMARK    3  A    between atoms: C_16  and  O_17
REMARK    4  A    between atoms: O_17  and  C_18
REMARK    5  A    between atoms: N_21  and  C_22
REMARK                            x       y       z     vdW  Elec       q    Type
REMARK                         _______ _______ _______ _____ _____    ______ ____
ROOT
ATOM      1  O   UNL     1     -18.556  21.092  16.364  0.00  0.00    +0.000 OA
ATOM      2  C   UNL     1     -18.773  19.878  17.026  0.00  0.00    +0.000 A 
ATOM      3  C   UNL     1     -19.865  19.081  16.706  0.00  0.00    +0.000 A 
ATOM      4  C   UNL     1     -19.726  17.703  16.588  0.00  0.00    +0.000 A 
ATOM      5  C   UNL     1     -18.549  17.067  16.962  0.00  0.00    +0.000 A 
ATOM      6  C   UNL     1     -17.612  17.857  17.610  0.00  0.00    +0.000 A 
ATOM      7  C   UNL     1     -17.742  19.230  17.696  0.00  0.00    +0.000 A 
ENDROOT
BRANCH   5   8
ATOM      8  C   UNL     1     -18.142  15.898  16.171  0.00  0.00    +0.000 C 
ATOM      9  C   UNL     1     -18.996  15.070  15.613  0.00  0.00    +0.000 C 
BRANCH   9  10
ATOM     10  C   UNL     1     -18.969  13.615  15.821  0.00  0.00    +0.000 A 
ATOM     11  C   UNL     1     -17.812  12.889  15.565  0.00  0.00    +0.000 A 
ATOM     12  C   UNL     1     -17.465  11.765  16.289  0.00  0.00    +0.000 A 
ATOM     13  O   UNL     1     -16.142  11.310  16.252  0.00  0.00    +0.000 OA
ATOM     14  C   UNL     1     -18.157  11.464  17.448  0.00  0.00    +0.000 A 
ATOM     15  C   UNL     1     -19.387  12.037  17.620  0.00  0.00    +0.000 A 
ATOM     16  O   UNL     1     -20.191  11.550  18.649  0.00  0.00    +0.000 OA
ATOM     17  C   UNL     1     -19.768  13.125  16.847  0.00  0.00    +0.000 A 
ENDBRANCH   9  10
ENDBRANCH   5   8
BRANCH   6  18
ATOM     18  O   UNL     1     -16.520  17.171  18.151  0.00  0.00    +0.000 OA
BRANCH  18  19
ATOM     19  C   UNL     1     -15.859  17.816  19.237  0.00  0.00    +0.000 C 
ATOM     20  C   UNL     1     -16.217  17.046  20.476  0.00  0.00    +0.000 C 
ATOM     21  C   UNL     1     -15.428  17.594  21.656  0.00  0.00    +0.000 C 
ATOM     22  N   UNL     1     -14.021  17.448  21.298  0.00  0.00    +0.000 N 
ATOM     23  C   UNL     1     -13.516  18.083  20.110  0.00  0.00    +0.000 C 
ATOM     24  C   UNL     1     -14.390  17.798  18.924  0.00  0.00    +0.000 C 
BRANCH  22  25
ATOM     25  C   UNL     1     -13.120  17.184  22.363  0.00  0.00    +0.000 A 
ATOM     26  C   UNL     1     -13.617  16.745  23.584  0.00  0.00    +0.000 A 
ATOM     27  C   UNL     1     -12.656  16.401  24.526  0.00  0.00    +0.000 A 
ATOM     28 CL   UNL     1     -13.052  16.057  26.189  0.00  0.00    +0.000 Cl
ATOM     29  N   UNL     1     -11.348  16.320  24.180  0.00  0.00    +0.000 NA
ATOM     30  C   UNL     1     -10.911  16.772  23.000  0.00  0.00    +0.000 A 
ATOM     31  N   UNL     1     -11.806  17.103  22.062  0.00  0.00    +0.000 NA
ENDBRANCH  22  25
ENDBRANCH  18  19
ENDBRANCH   6  18
TORSDOF 5
ENDMDL
MODEL 9
REMARK VINA RESULT:      -5.8     21.616     23.271
REMARK  Name = 
REMARK  5 active torsions:
REMARK  status: ('A' for Active; 'I' for Inactive)
REMARK    1  A    between atoms: C_5  and  C_6
REMARK    2  A    between atoms: C_7  and  C_8
REMARK    3  A    between atoms: C_16  and  O_17
REMARK    4  A    between atoms: O_17  and  C_18
REMARK    5  A    between atoms: N_21  and  C_22
REMARK                            x       y       z     vdW  Elec       q    Type
REMARK                         _______ _______ _______ _____ _____    ______ ____
ROOT
ATOM      1  O   UNL     1     -11.249  22.867 -25.903  0.00  0.00    +0.000 OA
ATOM      2  C   UNL     1     -10.705  21.724 -25.305  0.00  0.00    +0.000 A 
ATOM      3  C   UNL     1      -9.429  21.751 -24.754  0.00  0.00    +0.000 A 
ATOM      4  C   UNL     1      -9.173  21.145 -23.531  0.00  0.00    +0.000 A 
ATOM      5  C   UNL     1     -10.126  20.344 -22.914  0.00  0.00    +0.000 A 
ATOM      6  C   UNL     1     -11.254  20.055 -23.666  0.00  0.00    +0.000 A 
ATOM      7  C   UNL     1     -11.517  20.685 -24.868  0.00  0.00    +0.000 A 
ENDROOT
BRANCH   5   8
ATOM      8  C   UNL     1     -10.179  20.381 -21.446  0.00  0.00    +0.000 C 
ATOM      9  C   UNL     1     -10.158  19.303 -20.695  0.00  0.00    +0.000 C 
BRANCH   9  10
ATOM     10  C   UNL     1     -11.170  19.008 -19.671  0.00  0.00    +0.000 A 
ATOM     11  C   UNL     1     -11.895  20.037 -19.081  0.00  0.00    +0.000 A 
ATOM     12  C   UNL     1     -13.203  19.881 -18.666  0.00  0.00    +0.000 A 
ATOM     13  O   UNL     1     -13.989  21.016 -18.443  0.00  0.00    +0.000 OA
ATOM     14  C   UNL     1     -13.902  18.746 -19.037  0.00  0.00    +0.000 A 
ATOM     15  C   UNL     1     -13.178  17.660 -19.446  0.00  0.00    +0.000 A 
ATOM     16  O   UNL     1     -13.849  16.447 -19.580  0.00  0.00    +0.000 OA
ATOM     17  C   UNL     1     -11.843  17.800 -19.800  0.00  0.00    +0.000 A 
ENDBRANCH   9  10
ENDBRANCH   5   8
BRANCH   6  18
ATOM     18  O   UNL     1     -12.113  19.098 -23.116  0.00  0.00    +0.000 OA
BRANCH  18  19
ATOM     19  C   UNL     1     -13.507  19.377 -23.234  0.00  0.00    +0.000 C 
ATOM     20  C   UNL     1     -14.229  18.107 -22.886  0.00  0.00    +0.000 C 
ATOM     21  C   UNL     1     -15.727  18.372 -22.849  0.00  0.00    +0.000 C 
ATOM     22  N   UNL     1     -15.924  19.415 -21.850  0.00  0.00    +0.000 N 
ATOM     23  C   UNL     1     -15.265  20.685 -22.001  0.00  0.00    +0.000 C 
ATOM     24  C   UNL     1     -13.804  20.511 -22.295  0.00  0.00    +0.000 C 
BRANCH  22  25
ATOM     25  C   UNL     1     -17.133  19.362 -21.106  0.00  0.00    +0.000 A 
ATOM     26  C   UNL     1     -18.290  19.910 -21.647  0.00  0.00    +0.000 A 
ATOM     27  C   UNL     1     -19.445  19.708 -20.902  0.00  0.00    +0.000 A 
ATOM     28 CL   UNL     1     -20.951  20.508 -21.268  0.00  0.00    +0.000 Cl
ATOM     29  N   UNL     1     -19.443  18.866 -19.840  0.00  0.00    +0.000 NA
ATOM     30  C   UNL     1     -18.303  18.375 -19.342  0.00  0.00    +0.000 A 
ATOM     31  N   UNL     1     -17.171  18.540 -20.036  0.00  0.00    +0.000 NA
ENDBRANCH  22  25
ENDBRANCH  18  19
ENDBRANCH   6  18
TORSDOF 5
ENDMDL
MODEL 10
REMARK VINA RESULT:      -5.7     16.765     19.204
REMARK  Name = 
REMARK  5 active torsions:
REMARK  status: ('A' for Active; 'I' for Inactive)
REMARK    1  A    between atoms: C_5  and  C_6
REMARK    2  A    between atoms: C_7  and  C_8
REMARK    3  A    between atoms: C_16  and  O_17
REMARK    4  A    between atoms: O_17  and  C_18
REMARK    5  A    between atoms: N_21  and  C_22
REMARK                            x       y       z     vdW  Elec       q    Type
REMARK                         _______ _______ _______ _____ _____    ______ ____
ROOT
ATOM      1  O   UNL     1     -38.958  -4.905  -4.188  0.00  0.00    +0.000 OA
ATOM      2  C   UNL     1     -37.654  -4.826  -4.690  0.00  0.00    +0.000 A 
ATOM      3  C   UNL     1     -36.791  -3.823  -4.266  0.00  0.00    +0.000 A 
ATOM      4  C   UNL     1     -35.462  -4.108  -3.975  0.00  0.00    +0.000 A 
ATOM      5  C   UNL     1     -34.915  -5.350  -4.271  0.00  0.00    +0.000 A 
ATOM      6  C   UNL     1     -35.712  -6.203  -5.018  0.00  0.00    +0.000 A 
ATOM      7  C   UNL     1     -37.042  -5.927  -5.277  0.00  0.00    +0.000 A 
ENDROOT
BRANCH   5   8
ATOM      8  C   UNL     1     -33.906  -5.873  -3.339  0.00  0.00    +0.000 C 
ATOM      9  C   UNL     1     -33.116  -5.105  -2.623  0.00  0.00    +0.000 C 
BRANCH   9  10
ATOM     10  C   UNL     1     -31.652  -5.228  -2.617  0.00  0.00    +0.000 A 
ATOM     11  C   UNL     1     -31.044  -6.377  -2.127  0.00  0.00    +0.000 A 
ATOM     12  C   UNL     1     -29.858  -6.867  -2.638  0.00  0.00    +0.000 A 
ATOM     13  O   UNL     1     -29.500  -8.195  -2.382  0.00  0.00    +0.000 OA
ATOM     14  C   UNL     1     -29.358  -6.340  -3.815  0.00  0.00    +0.000 A 
ATOM     15  C   UNL     1     -29.821  -5.115  -4.209  0.00  0.00    +0.000 A 
ATOM     16  O   UNL     1     -29.148  -4.471  -5.245  0.00  0.00    +0.000 OA
ATOM     17  C   UNL     1     -30.977  -4.588  -3.649  0.00  0.00    +0.000 A 
ENDBRANCH   9  10
ENDBRANCH   5   8
BRANCH   6  18
ATOM     18  O   UNL     1     -35.085  -7.367  -5.472  0.00  0.00    +0.000 OA
BRANCH  18  19
ATOM     19  C   UNL     1     -35.883  -8.549  -5.452  0.00  0.00    +0.000 C 
ATOM     20  C   UNL     1     -35.387  -9.419  -6.572  0.00  0.00    +0.000 C 
ATOM     21  C   UNL     1     -36.100 -10.763  -6.518  0.00  0.00    +0.000 C 
ATOM     22  N   UNL     1     -35.801 -11.322  -5.205  0.00  0.00    +0.000 N 
ATOM     23  C   UNL     1     -36.164 -10.595  -4.018  0.00  0.00    +0.000 C 
ATOM     24  C   UNL     1     -35.713  -9.165  -4.094  0.00  0.00    +0.000 C 
BRANCH  22  25
ATOM     25  C   UNL     1     -35.689 -12.736  -5.127  0.00  0.00    +0.000 A 
ATOM     26  C   UNL     1     -34.664 -13.298  -4.376  0.00  0.00    +0.000 A 
ATOM     27  C   UNL     1     -34.702 -14.681  -4.263  0.00  0.00    +0.000 A 
ATOM     28 CL   UNL     1     -33.393 -15.605  -3.574  0.00  0.00    +0.000 Cl
ATOM     29  N   UNL     1     -35.781 -15.380  -4.694  0.00  0.00    +0.000 NA
ATOM     30  C   UNL     1     -36.736 -14.801  -5.430  0.00  0.00    +0.000 A 
ATOM     31  N   UNL     1     -36.739 -13.469  -5.554  0.00  0.00    +0.000 NA
ENDBRANCH  22  25
ENDBRANCH  18  19
ENDBRANCH   6  18
TORSDOF 5
ENDMDL
