MODEL 1
REMARK VINA RESULT:      -7.3      0.000      0.000
REMARK  Name = 
REMARK  5 active torsions:
REMARK  status: ('A' for Active; 'I' for Inactive)
REMARK    1  A    between atoms: C_5  and  C_6
REMARK    2  A    between atoms: C_7  and  C_8
REMARK    3  A    between atoms: C_16  and  O_17
REMARK    4  A    between atoms: O_17  and  C_18
REMARK    5  A    between atoms: N_21  and  C_22
REMARK                            x       y       z     vdW  Elec       q    Type
REMARK                         _______ _______ _______ _____ _____    ______ ____
ROOT
ATOM      1  O   UNL     1     -36.282 -10.715  -5.065  0.00  0.00    +0.000 OA
ATOM      2  C   UNL     1     -36.150  -9.388  -4.645  0.00  0.00    +0.000 A 
ATOM      3  C   UNL     1     -36.578  -9.044  -3.370  0.00  0.00    +0.000 A 
ATOM      4  C   UNL     1     -35.864  -8.143  -2.592  0.00  0.00    +0.000 A 
ATOM      5  C   UNL     1     -34.693  -7.558  -3.062  0.00  0.00    +0.000 A 
ATOM      6  C   UNL     1     -34.451  -7.687  -4.423  0.00  0.00    +0.000 A 
ATOM      7  C   UNL     1     -35.226  -8.523  -5.218  0.00  0.00    +0.000 A 
ENDROOT
BRANCH   5   8
ATOM      8  C   UNL     1     -33.516  -7.428  -2.189  0.00  0.00    +0.000 C 
ATOM      9  C   UNL     1     -32.870  -6.298  -2.026  0.00  0.00    +0.000 C 
BRANCH   9  10
ATOM     10  C   UNL     1     -31.418  -6.154  -2.192  0.00  0.00    +0.000 A 
ATOM     11  C   UNL     1     -30.887  -4.994  -2.744  0.00  0.00    +0.000 A 
ATOM     12  C   UNL     1     -29.830  -5.026  -3.634  0.00  0.00    +0.000 A 
ATOM     13  O   UNL     1     -29.529  -3.973  -4.491  0.00  0.00    +0.000 OA
ATOM     14  C   UNL     1     -29.105  -6.197  -3.775  0.00  0.00    +0.000 A 
ATOM     15  C   UNL     1     -29.506  -7.339  -3.110  0.00  0.00    +0.000 A 
ATOM     16  O   UNL     1     -28.675  -8.431  -2.904  0.00  0.00    +0.000 OA
ATOM     17  C   UNL     1     -30.738  -7.323  -2.512  0.00  0.00    +0.000 A 
ENDBRANCH   9  10
ENDBRANCH   5   8
BRANCH   6  18
ATOM     18  O   UNL     1     -33.585  -6.736  -4.968  0.00  0.00    +0.000 OA
BRANCH  18  19
ATOM     19  C   UNL     1     -34.196  -5.553  -5.458  0.00  0.00    +0.000 C 
ATOM     20  C   UNL     1     -33.187  -4.449  -5.692  0.00  0.00    +0.000 C 
ATOM     21  C   UNL     1     -33.936  -3.306  -6.341  0.00  0.00    +0.000 C 
ATOM     22  N   UNL     1     -34.893  -2.824  -5.352  0.00  0.00    +0.000 N 
ATOM     23  C   UNL     1     -34.940  -3.573  -4.100  0.00  0.00    +0.000 C 
ATOM     24  C   UNL     1     -35.219  -5.013  -4.468  0.00  0.00    +0.000 C 
BRANCH  22  25
ATOM     25  C   UNL     1     -36.113  -2.281  -5.841  0.00  0.00    +0.000 A 
ATOM     26  C   UNL     1     -36.686  -1.182  -5.216  0.00  0.00    +0.000 A 
ATOM     27  C   UNL     1     -37.852  -0.622  -5.701  0.00  0.00    +0.000 A 
ATOM     28  C   UNL     1     -38.231  -0.968  -6.976  0.00  0.00    +0.000 A 
ATOM     29 CL   UNL     1     -39.319   0.015  -7.913  0.00  0.00    +0.000 Cl
ATOM     30  N   UNL     1     -37.726  -2.076  -7.519  0.00  0.00    +0.000 NA
ATOM     31  N   UNL     1     -36.720  -2.741  -6.962  0.00  0.00    +0.000 NA
ENDBRANCH  22  25
ENDBRANCH  18  19
ENDBRANCH   6  18
TORSDOF 5
ENDMDL
MODEL 2
REMARK VINA RESULT:      -7.1      2.745      3.875
REMARK  Name = 
REMARK  5 active torsions:
REMARK  status: ('A' for Active; 'I' for Inactive)
REMARK    1  A    between atoms: C_5  and  C_6
REMARK    2  A    between atoms: C_7  and  C_8
REMARK    3  A    between atoms: C_16  and  O_17
REMARK    4  A    between atoms: O_17  and  C_18
REMARK    5  A    between atoms: N_21  and  C_22
REMARK                            x       y       z     vdW  Elec       q    Type
REMARK                         _______ _______ _______ _____ _____    ______ ____
ROOT
ATOM      1  O   UNL     1     -35.490  -8.496  -7.220  0.00  0.00    +0.000 OA
ATOM      2  C   UNL     1     -35.908  -7.891  -6.029  0.00  0.00    +0.000 A 
ATOM      3  C   UNL     1     -35.176  -8.118  -4.871  0.00  0.00    +0.000 A 
ATOM      4  C   UNL     1     -34.957  -7.101  -3.951  0.00  0.00    +0.000 A 
ATOM      5  C   UNL     1     -35.458  -5.821  -4.161  0.00  0.00    +0.000 A 
ATOM      6  C   UNL     1     -36.417  -5.698  -5.159  0.00  0.00    +0.000 A 
ATOM      7  C   UNL     1     -36.699  -6.749  -6.022  0.00  0.00    +0.000 A 
ENDROOT
BRANCH   5   8
ATOM      8  C   UNL     1     -34.630  -4.637  -3.888  0.00  0.00    +0.000 C 
ATOM      9  C   UNL     1     -33.796  -4.132  -4.767  0.00  0.00    +0.000 C 
BRANCH   9  10
ATOM     10  C   UNL     1     -32.383  -3.848  -4.487  0.00  0.00    +0.000 A 
ATOM     11  C   UNL     1     -31.542  -3.408  -5.502  0.00  0.00    +0.000 A 
ATOM     12  C   UNL     1     -30.241  -3.859  -5.621  0.00  0.00    +0.000 A 
ATOM     13  O   UNL     1     -29.510  -3.762  -6.800  0.00  0.00    +0.000 OA
ATOM     14  C   UNL     1     -29.670  -4.550  -4.565  0.00  0.00    +0.000 A 
ATOM     15  C   UNL     1     -30.432  -4.868  -3.458  0.00  0.00    +0.000 A 
ATOM     16  O   UNL     1     -29.884  -5.228  -2.235  0.00  0.00    +0.000 OA
ATOM     17  C   UNL     1     -31.785  -4.680  -3.547  0.00  0.00    +0.000 A 
ENDBRANCH   9  10
ENDBRANCH   5   8
BRANCH   6  18
ATOM     18  O   UNL     1     -37.247  -4.579  -5.054  0.00  0.00    +0.000 OA
BRANCH  18  19
ATOM     19  C   UNL     1     -37.453  -3.848  -6.252  0.00  0.00    +0.000 C 
ATOM     20  C   UNL     1     -37.183  -2.370  -6.068  0.00  0.00    +0.000 C 
ATOM     21  C   UNL     1     -37.298  -1.734  -7.435  0.00  0.00    +0.000 C 
ATOM     22  N   UNL     1     -38.691  -1.879  -7.843  0.00  0.00    +0.000 N 
ATOM     23  C   UNL     1     -39.545  -2.627  -6.926  0.00  0.00    +0.000 C 
ATOM     24  C   UNL     1     -38.892  -3.977  -6.733  0.00  0.00    +0.000 C 
BRANCH  22  25
ATOM     25  C   UNL     1     -38.949  -2.008  -9.236  0.00  0.00    +0.000 A 
ATOM     26  C   UNL     1     -38.008  -2.602 -10.066  0.00  0.00    +0.000 A 
ATOM     27  C   UNL     1     -38.259  -2.766 -11.414  0.00  0.00    +0.000 A 
ATOM     28  C   UNL     1     -39.562  -2.632 -11.831  0.00  0.00    +0.000 A 
ATOM     29 CL   UNL     1     -40.126  -3.315 -13.329  0.00  0.00    +0.000 Cl
ATOM     30  N   UNL     1     -40.424  -1.984 -11.048  0.00  0.00    +0.000 NA
ATOM     31  N   UNL     1     -40.128  -1.645  -9.798  0.00  0.00    +0.000 NA
ENDBRANCH  22  25
ENDBRANCH  18  19
ENDBRANCH   6  18
TORSDOF 5
ENDMDL
MODEL 3
REMARK VINA RESULT:      -7.1     14.155     16.791
REMARK  Name = 
REMARK  5 active torsions:
REMARK  status: ('A' for Active; 'I' for Inactive)
REMARK    1  A    between atoms: C_5  and  C_6
REMARK    2  A    between atoms: C_7  and  C_8
REMARK    3  A    between atoms: C_16  and  O_17
REMARK    4  A    between atoms: O_17  and  C_18
REMARK    5  A    between atoms: N_21  and  C_22
REMARK                            x       y       z     vdW  Elec       q    Type
REMARK                         _______ _______ _______ _____ _____    ______ ____
ROOT
ATOM      1  O   UNL     1     -24.408  12.352  -2.681  0.00  0.00    +0.000 OA
ATOM      2  C   UNL     1     -23.590  11.304  -3.113  0.00  0.00    +0.000 A 
ATOM      3  C   UNL     1     -22.861  10.591  -2.171  0.00  0.00    +0.000 A 
ATOM      4  C   UNL     1     -22.702   9.216  -2.277  0.00  0.00    +0.000 A 
ATOM      5  C   UNL     1     -23.272   8.505  -3.328  0.00  0.00    +0.000 A 
ATOM      6  C   UNL     1     -23.736   9.263  -4.396  0.00  0.00    +0.000 A 
ATOM      7  C   UNL     1     -23.809  10.649  -4.319  0.00  0.00    +0.000 A 
ENDROOT
BRANCH   5   8
ATOM      8  C   UNL     1     -23.944   7.219  -3.087  0.00  0.00    +0.000 C 
ATOM      9  C   UNL     1     -25.033   7.108  -2.364  0.00  0.00    +0.000 C 
BRANCH   9  10
ATOM     10  C   UNL     1     -25.184   6.165  -1.249  0.00  0.00    +0.000 A 
ATOM     11  C   UNL     1     -24.467   4.975  -1.235  0.00  0.00    +0.000 A 
ATOM     12  C   UNL     1     -25.031   3.786  -0.813  0.00  0.00    +0.000 A 
ATOM     13  O   UNL     1     -24.508   2.540  -1.140  0.00  0.00    +0.000 OA
ATOM     14  C   UNL     1     -26.238   3.819  -0.134  0.00  0.00    +0.000 A 
ATOM     15  C   UNL     1     -26.910   5.016   0.019  0.00  0.00    +0.000 A 
ATOM     16  O   UNL     1     -27.911   5.212   0.959  0.00  0.00    +0.000 OA
ATOM     17  C   UNL     1     -26.460   6.089  -0.703  0.00  0.00    +0.000 A 
ENDBRANCH   9  10
ENDBRANCH   5   8
BRANCH   6  18
ATOM     18  O   UNL     1     -23.852   8.579  -5.607  0.00  0.00    +0.000 OA
BRANCH  18  19
ATOM     19  C   UNL     1     -25.006   8.877  -6.378  0.00  0.00    +0.000 C 
ATOM     20  C   UNL     1     -26.260   8.280  -5.776  0.00  0.00    +0.000 C 
ATOM     21  C   UNL     1     -27.421   8.785  -6.602  0.00  0.00    +0.000 C 
ATOM     22  N   UNL     1     -27.260   8.215  -7.935  0.00  0.00    +0.000 N 
ATOM     23  C   UNL     1     -26.051   7.423  -8.142  0.00  0.00    +0.000 C 
ATOM     24  C   UNL     1     -24.883   8.316  -7.789  0.00  0.00    +0.000 C 
BRANCH  22  25
ATOM     25  C   UNL     1     -27.739   8.983  -9.032  0.00  0.00    +0.000 A 
ATOM     26  C   UNL     1     -27.924  10.352  -8.895  0.00  0.00    +0.000 A 
ATOM     27  C   UNL     1     -28.356  11.116  -9.961  0.00  0.00    +0.000 A 
ATOM     28  C   UNL     1     -28.277  10.551 -11.212  0.00  0.00    +0.000 A 
ATOM     29 CL   UNL     1     -28.258  11.515 -12.660  0.00  0.00    +0.000 Cl
ATOM     30  N   UNL     1     -28.184   9.225 -11.313  0.00  0.00    +0.000 NA
ATOM     31  N   UNL     1     -27.956   8.449 -10.258  0.00  0.00    +0.000 NA
ENDBRANCH  22  25
ENDBRANCH  18  19
ENDBRANCH   6  18
TORSDOF 5
ENDMDL
MODEL 4
REMARK VINA RESULT:      -6.9      2.107      2.536
REMARK  Name = 
REMARK  5 active torsions:
REMARK  status: ('A' for Active; 'I' for Inactive)
REMARK    1  A    between atoms: C_5  and  C_6
REMARK    2  A    between atoms: C_7  and  C_8
REMARK    3  A    between atoms: C_16  and  O_17
REMARK    4  A    between atoms: O_17  and  C_18
REMARK    5  A    between atoms: N_21  and  C_22
REMARK                            x       y       z     vdW  Elec       q    Type
REMARK                         _______ _______ _______ _____ _____    ______ ____
ROOT
ATOM      1  O   UNL     1     -35.758 -10.857  -4.715  0.00  0.00    +0.000 OA
ATOM      2  C   UNL     1     -35.835  -9.513  -4.336  0.00  0.00    +0.000 A 
ATOM      3  C   UNL     1     -35.786  -9.194  -2.985  0.00  0.00    +0.000 A 
ATOM      4  C   UNL     1     -35.095  -8.077  -2.536  0.00  0.00    +0.000 A 
ATOM      5  C   UNL     1     -34.424  -7.243  -3.423  0.00  0.00    +0.000 A 
ATOM      6  C   UNL     1     -34.729  -7.411  -4.768  0.00  0.00    +0.000 A 
ATOM      7  C   UNL     1     -35.499  -8.482  -5.205  0.00  0.00    +0.000 A 
ENDROOT
BRANCH   5   8
ATOM      8  C   UNL     1     -33.079  -6.738  -3.107  0.00  0.00    +0.000 C 
ATOM      9  C   UNL     1     -32.866  -5.545  -2.603  0.00  0.00    +0.000 C 
BRANCH   9  10
ATOM     10  C   UNL     1     -31.921  -4.574  -3.168  0.00  0.00    +0.000 A 
ATOM     11  C   UNL     1     -32.382  -3.513  -3.938  0.00  0.00    +0.000 A 
ATOM     12  C   UNL     1     -31.720  -3.093  -5.076  0.00  0.00    +0.000 A 
ATOM     13  O   UNL     1     -32.325  -2.328  -6.067  0.00  0.00    +0.000 OA
ATOM     14  C   UNL     1     -30.433  -3.548  -5.311  0.00  0.00    +0.000 A 
ATOM     15  C   UNL     1     -29.870  -4.488  -4.469  0.00  0.00    +0.000 A 
ATOM     16  O   UNL     1     -28.506  -4.734  -4.407  0.00  0.00    +0.000 OA
ATOM     17  C   UNL     1     -30.695  -5.098  -3.563  0.00  0.00    +0.000 A 
ENDBRANCH   9  10
ENDBRANCH   5   8
BRANCH   6  18
ATOM     18  O   UNL     1     -34.454  -6.312  -5.584  0.00  0.00    +0.000 OA
BRANCH  18  19
ATOM     19  C   UNL     1     -35.547  -5.444  -5.841  0.00  0.00    +0.000 C 
ATOM     20  C   UNL     1     -35.288  -4.542  -7.028  0.00  0.00    +0.000 C 
ATOM     21  C   UNL     1     -36.569  -3.778  -7.282  0.00  0.00    +0.000 C 
ATOM     22  N   UNL     1     -36.778  -2.924  -6.118  0.00  0.00    +0.000 N 
ATOM     23  C   UNL     1     -35.807  -3.076  -5.039  0.00  0.00    +0.000 C 
ATOM     24  C   UNL     1     -35.820  -4.537  -4.649  0.00  0.00    +0.000 C 
BRANCH  22  25
ATOM     25  C   UNL     1     -38.123  -2.636  -5.758  0.00  0.00    +0.000 A 
ATOM     26  C   UNL     1     -39.155  -3.443  -6.219  0.00  0.00    +0.000 A 
ATOM     27  C   UNL     1     -40.463  -3.196  -5.849  0.00  0.00    +0.000 A 
ATOM     28  C   UNL     1     -40.665  -2.360  -4.776  0.00  0.00    +0.000 A 
ATOM     29 CL   UNL     1     -42.148  -2.371  -3.865  0.00  0.00    +0.000 Cl
ATOM     30  N   UNL     1     -39.683  -1.537  -4.408  0.00  0.00    +0.000 NA
ATOM     31  N   UNL     1     -38.453  -1.639  -4.901  0.00  0.00    +0.000 NA
ENDBRANCH  22  25
ENDBRANCH  18  19
ENDBRANCH   6  18
TORSDOF 5
ENDMDL
MODEL 5
REMARK VINA RESULT:      -6.8      6.486      7.750
REMARK  Name = 
REMARK  5 active torsions:
REMARK  status: ('A' for Active; 'I' for Inactive)
REMARK    1  A    between atoms: C_5  and  C_6
REMARK    2  A    between atoms: C_7  and  C_8
REMARK    3  A    between atoms: C_16  and  O_17
REMARK    4  A    between atoms: O_17  and  C_18
REMARK    5  A    between atoms: N_21  and  C_22
REMARK                            x       y       z     vdW  Elec       q    Type
REMARK                         _______ _______ _______ _____ _____    ______ ____
ROOT
ATOM      1  O   UNL     1     -39.204  -9.315  -6.784  0.00  0.00    +0.000 OA
ATOM      2  C   UNL     1     -38.872  -8.007  -7.153  0.00  0.00    +0.000 A 
ATOM      3  C   UNL     1     -38.587  -7.083  -6.157  0.00  0.00    +0.000 A 
ATOM      4  C   UNL     1     -37.572  -6.148  -6.315  0.00  0.00    +0.000 A 
ATOM      5  C   UNL     1     -36.805  -6.109  -7.474  0.00  0.00    +0.000 A 
ATOM      6  C   UNL     1     -37.294  -6.834  -8.554  0.00  0.00    +0.000 A 
ATOM      7  C   UNL     1     -38.370  -7.703  -8.412  0.00  0.00    +0.000 A 
ENDROOT
BRANCH   5   8
ATOM      8  C   UNL     1     -35.347  -5.929  -7.403  0.00  0.00    +0.000 C 
ATOM      9  C   UNL     1     -34.680  -5.947  -6.273  0.00  0.00    +0.000 C 
BRANCH   9  10
ATOM     10  C   UNL     1     -33.746  -4.895  -5.856  0.00  0.00    +0.000 A 
ATOM     11  C   UNL     1     -32.715  -4.498  -6.700  0.00  0.00    +0.000 A 
ATOM     12  C   UNL     1     -31.447  -4.218  -6.224  0.00  0.00    +0.000 A 
ATOM     13  O   UNL     1     -30.319  -4.204  -7.037  0.00  0.00    +0.000 OA
ATOM     14  C   UNL     1     -31.261  -4.063  -4.861  0.00  0.00    +0.000 A 
ATOM     15  C   UNL     1     -32.310  -4.291  -3.991  0.00  0.00    +0.000 A 
ATOM     16  O   UNL     1     -32.327  -3.830  -2.683  0.00  0.00    +0.000 OA
ATOM     17  C   UNL     1     -33.436  -4.878  -4.501  0.00  0.00    +0.000 A 
ENDBRANCH   9  10
ENDBRANCH   5   8
BRANCH   6  18
ATOM     18  O   UNL     1     -36.827  -6.429  -9.805  0.00  0.00    +0.000 OA
BRANCH  18  19
ATOM     19  C   UNL     1     -36.583  -7.468 -10.741  0.00  0.00    +0.000 C 
ATOM     20  C   UNL     1     -35.129  -7.889 -10.754  0.00  0.00    +0.000 C 
ATOM     21  C   UNL     1     -35.032  -9.085 -11.676  0.00  0.00    +0.000 C 
ATOM     22  N   UNL     1     -35.362  -8.603 -13.013  0.00  0.00    +0.000 N 
ATOM     23  C   UNL     1     -35.759  -7.202 -13.101  0.00  0.00    +0.000 C 
ATOM     24  C   UNL     1     -36.926  -7.023 -12.156  0.00  0.00    +0.000 C 
BRANCH  22  25
ATOM     25  C   UNL     1     -35.992  -9.523 -13.896  0.00  0.00    +0.000 A 
ATOM     26  C   UNL     1     -36.867 -10.479 -13.397  0.00  0.00    +0.000 A 
ATOM     27  C   UNL     1     -37.514 -11.356 -14.246  0.00  0.00    +0.000 A 
ATOM     28  C   UNL     1     -37.521 -11.043 -15.585  0.00  0.00    +0.000 A 
ATOM     29 CL   UNL     1     -38.700 -11.706 -16.680  0.00  0.00    +0.000 Cl
ATOM     30  N   UNL     1     -36.614 -10.184 -16.049  0.00  0.00    +0.000 NA
ATOM     31  N   UNL     1     -35.842  -9.464 -15.241  0.00  0.00    +0.000 NA
ENDBRANCH  22  25
ENDBRANCH  18  19
ENDBRANCH   6  18
TORSDOF 5
ENDMDL
MODEL 6
REMARK VINA RESULT:      -6.6     17.957     20.129
REMARK  Name = 
REMARK  5 active torsions:
REMARK  status: ('A' for Active; 'I' for Inactive)
REMARK    1  A    between atoms: C_5  and  C_6
REMARK    2  A    between atoms: C_7  and  C_8
REMARK    3  A    between atoms: C_16  and  O_17
REMARK    4  A    between atoms: O_17  and  C_18
REMARK    5  A    between atoms: N_21  and  C_22
REMARK                            x       y       z     vdW  Elec       q    Type
REMARK                         _______ _______ _______ _____ _____    ______ ____
ROOT
ATOM      1  O   UNL     1     -22.110 -13.313   2.331  0.00  0.00    +0.000 OA
ATOM      2  C   UNL     1     -21.117 -14.089   2.938  0.00  0.00    +0.000 A 
ATOM      3  C   UNL     1     -20.884 -15.371   2.460  0.00  0.00    +0.000 A 
ATOM      4  C   UNL     1     -19.595 -15.879   2.367  0.00  0.00    +0.000 A 
ATOM      5  C   UNL     1     -18.494 -15.119   2.746  0.00  0.00    +0.000 A 
ATOM      6  C   UNL     1     -18.768 -13.975   3.484  0.00  0.00    +0.000 A 
ATOM      7  C   UNL     1     -20.070 -13.518   3.651  0.00  0.00    +0.000 A 
ENDROOT
BRANCH   5   8
ATOM      8  C   UNL     1     -17.276 -15.100   1.922  0.00  0.00    +0.000 C 
ATOM      9  C   UNL     1     -17.278 -14.762   0.654  0.00  0.00    +0.000 C 
BRANCH   9  10
ATOM     10  C   UNL     1     -16.689 -15.580  -0.413  0.00  0.00    +0.000 A 
ATOM     11  C   UNL     1     -15.395 -15.330  -0.854  0.00  0.00    +0.000 A 
ATOM     12  C   UNL     1     -15.054 -15.389  -2.193  0.00  0.00    +0.000 A 
ATOM     13  O   UNL     1     -13.915 -14.784  -2.712  0.00  0.00    +0.000 OA
ATOM     14  C   UNL     1     -15.939 -15.970  -3.086  0.00  0.00    +0.000 A 
ATOM     15  C   UNL     1     -17.182 -16.385  -2.652  0.00  0.00    +0.000 A 
ATOM     16  O   UNL     1     -17.977 -17.275  -3.360  0.00  0.00    +0.000 OA
ATOM     17  C   UNL     1     -17.575 -16.000  -1.398  0.00  0.00    +0.000 A 
ENDBRANCH   9  10
ENDBRANCH   5   8
BRANCH   6  18
ATOM     18  O   UNL     1     -17.708 -13.493   4.254  0.00  0.00    +0.000 OA
BRANCH  18  19
ATOM     19  C   UNL     1     -17.436 -12.106   4.134  0.00  0.00    +0.000 C 
ATOM     20  C   UNL     1     -16.477 -11.813   3.000  0.00  0.00    +0.000 C 
ATOM     21  C   UNL     1     -16.383 -10.307   2.887  0.00  0.00    +0.000 C 
ATOM     22  N   UNL     1     -15.761  -9.839   4.121  0.00  0.00    +0.000 N 
ATOM     23  C   UNL     1     -15.483 -10.866   5.119  0.00  0.00    +0.000 C 
ATOM     24  C   UNL     1     -16.797 -11.559   5.404  0.00  0.00    +0.000 C 
BRANCH  22  25
ATOM     25  C   UNL     1     -16.140  -8.550   4.589  0.00  0.00    +0.000 A 
ATOM     26  C   UNL     1     -15.611  -7.411   3.998  0.00  0.00    +0.000 A 
ATOM     27  C   UNL     1     -15.996  -6.153   4.419  0.00  0.00    +0.000 A 
ATOM     28  C   UNL     1     -17.133  -6.069   5.187  0.00  0.00    +0.000 A 
ATOM     29 CL   UNL     1     -18.036  -4.589   5.339  0.00  0.00    +0.000 Cl
ATOM     30  N   UNL     1     -17.570  -7.163   5.810  0.00  0.00    +0.000 NA
ATOM     31  N   UNL     1     -17.075  -8.370   5.554  0.00  0.00    +0.000 NA
ENDBRANCH  22  25
ENDBRANCH  18  19
ENDBRANCH   6  18
TORSDOF 5
ENDMDL
MODEL 7
REMARK VINA RESULT:      -6.6     14.086     16.787
REMARK  Name = 
REMARK  5 active torsions:
REMARK  status: ('A' for Active; 'I' for Inactive)
REMARK    1  A    between atoms: C_5  and  C_6
REMARK    2  A    between atoms: C_7  and  C_8
REMARK    3  A    between atoms: C_16  and  O_17
REMARK    4  A    between atoms: O_17  and  C_18
REMARK    5  A    between atoms: N_21  and  C_22
REMARK                            x       y       z     vdW  Elec       q    Type
REMARK                         _______ _______ _______ _____ _____    ______ ____
ROOT
ATOM      1  O   UNL     1     -24.673  12.799  -3.156  0.00  0.00    +0.000 OA
ATOM      2  C   UNL     1     -23.751  11.763  -3.345  0.00  0.00    +0.000 A 
ATOM      3  C   UNL     1     -23.279  11.077  -2.235  0.00  0.00    +0.000 A 
ATOM      4  C   UNL     1     -23.073   9.704  -2.275  0.00  0.00    +0.000 A 
ATOM      5  C   UNL     1     -23.337   8.971  -3.426  0.00  0.00    +0.000 A 
ATOM      6  C   UNL     1     -23.521   9.707  -4.589  0.00  0.00    +0.000 A 
ATOM      7  C   UNL     1     -23.637  11.092  -4.556  0.00  0.00    +0.000 A 
ENDROOT
BRANCH   5   8
ATOM      8  C   UNL     1     -24.025   7.673  -3.348  0.00  0.00    +0.000 C 
ATOM      9  C   UNL     1     -25.289   7.554  -3.017  0.00  0.00    +0.000 C 
BRANCH   9  10
ATOM     10  C   UNL     1     -25.779   6.659  -1.962  0.00  0.00    +0.000 A 
ATOM     11  C   UNL     1     -25.406   6.863  -0.639  0.00  0.00    +0.000 A 
ATOM     12  C   UNL     1     -25.094   5.813   0.204  0.00  0.00    +0.000 A 
ATOM     13  O   UNL     1     -24.359   5.972   1.374  0.00  0.00    +0.000 OA
ATOM     14  C   UNL     1     -25.418   4.523  -0.182  0.00  0.00    +0.000 A 
ATOM     15  C   UNL     1     -25.947   4.292  -1.437  0.00  0.00    +0.000 A 
ATOM     16  O   UNL     1     -26.617   3.126  -1.777  0.00  0.00    +0.000 OA
ATOM     17  C   UNL     1     -25.923   5.327  -2.333  0.00  0.00    +0.000 A 
ENDBRANCH   9  10
ENDBRANCH   5   8
BRANCH   6  18
ATOM     18  O   UNL     1     -23.306   9.008  -5.779  0.00  0.00    +0.000 OA
BRANCH  18  19
ATOM     19  C   UNL     1     -24.369   9.044  -6.718  0.00  0.00    +0.000 C 
ATOM     20  C   UNL     1     -25.375  10.127  -6.395  0.00  0.00    +0.000 C 
ATOM     21  C   UNL     1     -26.367  10.154  -7.536  0.00  0.00    +0.000 C 
ATOM     22  N   UNL     1     -27.071   8.877  -7.502  0.00  0.00    +0.000 N 
ATOM     23  C   UNL     1     -26.610   7.927  -6.494  0.00  0.00    +0.000 C 
ATOM     24  C   UNL     1     -25.131   7.725  -6.735  0.00  0.00    +0.000 C 
BRANCH  22  25
ATOM     25  C   UNL     1     -27.522   8.352  -8.744  0.00  0.00    +0.000 A 
ATOM     26  C   UNL     1     -26.606   8.022  -9.734  0.00  0.00    +0.000 A 
ATOM     27  C   UNL     1     -27.027   7.479 -10.933  0.00  0.00    +0.000 A 
ATOM     28  C   UNL     1     -28.307   6.979 -10.980  0.00  0.00    +0.000 A 
ATOM     29 CL   UNL     1     -28.799   5.815 -12.177  0.00  0.00    +0.000 Cl
ATOM     30  N   UNL     1     -29.188   7.379 -10.063  0.00  0.00    +0.000 NA
ATOM     31  N   UNL     1     -28.826   8.074  -8.990  0.00  0.00    +0.000 NA
ENDBRANCH  22  25
ENDBRANCH  18  19
ENDBRANCH   6  18
TORSDOF 5
ENDMDL
MODEL 8
REMARK VINA RESULT:      -6.6     15.250     17.243
REMARK  Name = 
REMARK  5 active torsions:
REMARK  status: ('A' for Active; 'I' for Inactive)
REMARK    1  A    between atoms: C_5  and  C_6
REMARK    2  A    between atoms: C_7  and  C_8
REMARK    3  A    between atoms: C_16  and  O_17
REMARK    4  A    between atoms: O_17  and  C_18
REMARK    5  A    between atoms: N_21  and  C_22
REMARK                            x       y       z     vdW  Elec       q    Type
REMARK                         _______ _______ _______ _____ _____    ______ ____
ROOT
ATOM      1  O   UNL     1     -25.754 -20.148  -7.868  0.00  0.00    +0.000 OA
ATOM      2  C   UNL     1     -25.211 -18.859  -7.887  0.00  0.00    +0.000 A 
ATOM      3  C   UNL     1     -24.057 -18.608  -7.158  0.00  0.00    +0.000 A 
ATOM      4  C   UNL     1     -23.060 -17.780  -7.656  0.00  0.00    +0.000 A 
ATOM      5  C   UNL     1     -23.182 -17.177  -8.903  0.00  0.00    +0.000 A 
ATOM      6  C   UNL     1     -24.449 -17.205  -9.471  0.00  0.00    +0.000 A 
ATOM      7  C   UNL     1     -25.472 -17.965  -8.918  0.00  0.00    +0.000 A 
ENDROOT
BRANCH   5   8
ATOM      8  C   UNL     1     -22.041 -17.132  -9.829  0.00  0.00    +0.000 C 
ATOM      9  C   UNL     1     -21.508 -18.208 -10.357  0.00  0.00    +0.000 C 
BRANCH   9  10
ATOM     10  C   UNL     1     -20.073 -18.518 -10.313  0.00  0.00    +0.000 A 
ATOM     11  C   UNL     1     -19.507 -19.058  -9.164  0.00  0.00    +0.000 A 
ATOM     12  C   UNL     1     -18.266 -18.660  -8.704  0.00  0.00    +0.000 A 
ATOM     13  O   UNL     1     -17.842 -18.866  -7.396  0.00  0.00    +0.000 OA
ATOM     14  C   UNL     1     -17.448 -17.916  -9.537  0.00  0.00    +0.000 A 
ATOM     15  C   UNL     1     -17.916 -17.494 -10.766  0.00  0.00    +0.000 A 
ATOM     16  O   UNL     1     -17.085 -17.067 -11.791  0.00  0.00    +0.000 OA
ATOM     17  C   UNL     1     -19.254 -17.642 -11.016  0.00  0.00    +0.000 A 
ENDBRANCH   9  10
ENDBRANCH   5   8
BRANCH   6  18
ATOM     18  O   UNL     1     -24.690 -16.227 -10.439  0.00  0.00    +0.000 OA
BRANCH  18  19
ATOM     19  C   UNL     1     -25.677 -16.546 -11.408  0.00  0.00    +0.000 C 
ATOM     20  C   UNL     1     -25.168 -17.540 -12.430  0.00  0.00    +0.000 C 
ATOM     21  C   UNL     1     -26.345 -17.901 -13.309  0.00  0.00    +0.000 C 
ATOM     22  N   UNL     1     -26.714 -16.684 -14.025  0.00  0.00    +0.000 N 
ATOM     23  C   UNL     1     -25.958 -15.487 -13.670  0.00  0.00    +0.000 C 
ATOM     24  C   UNL     1     -26.112 -15.306 -12.177  0.00  0.00    +0.000 C 
BRANCH  22  25
ATOM     25  C   UNL     1     -28.087 -16.522 -14.361  0.00  0.00    +0.000 A 
ATOM     26  C   UNL     1     -29.065 -17.187 -13.634  0.00  0.00    +0.000 A 
ATOM     27  C   UNL     1     -30.403 -17.011 -13.926  0.00  0.00    +0.000 A 
ATOM     28  C   UNL     1     -30.738 -15.934 -14.712  0.00  0.00    +0.000 A 
ATOM     29 CL   UNL     1     -32.346 -15.268 -14.728  0.00  0.00    +0.000 Cl
ATOM     30  N   UNL     1     -29.793 -15.368 -15.463  0.00  0.00    +0.000 NA
ATOM     31  N   UNL     1     -28.506 -15.668 -15.326  0.00  0.00    +0.000 NA
ENDBRANCH  22  25
ENDBRANCH  18  19
ENDBRANCH   6  18
TORSDOF 5
ENDMDL
MODEL 9
REMARK VINA RESULT:      -6.5     33.223     35.944
REMARK  Name = 
REMARK  5 active torsions:
REMARK  status: ('A' for Active; 'I' for Inactive)
REMARK    1  A    between atoms: C_5  and  C_6
REMARK    2  A    between atoms: C_7  and  C_8
REMARK    3  A    between atoms: C_16  and  O_17
REMARK    4  A    between atoms: O_17  and  C_18
REMARK    5  A    between atoms: N_21  and  C_22
REMARK                            x       y       z     vdW  Elec       q    Type
REMARK                         _______ _______ _______ _____ _____    ______ ____
ROOT
ATOM      1  O   UNL     1       4.993   0.504  -6.414  0.00  0.00    +0.000 OA
ATOM      2  C   UNL     1       3.844   1.089  -5.872  0.00  0.00    +0.000 A 
ATOM      3  C   UNL     1       3.907   2.404  -5.432  0.00  0.00    +0.000 A 
ATOM      4  C   UNL     1       2.848   3.280  -5.636  0.00  0.00    +0.000 A 
ATOM      5  C   UNL     1       1.693   2.870  -6.291  0.00  0.00    +0.000 A 
ATOM      6  C   UNL     1       1.538   1.499  -6.454  0.00  0.00    +0.000 A 
ATOM      7  C   UNL     1       2.571   0.616  -6.163  0.00  0.00    +0.000 A 
ENDROOT
BRANCH   5   8
ATOM      8  C   UNL     1       1.054   3.733  -7.296  0.00  0.00    +0.000 C 
ATOM      9  C   UNL     1       1.112   5.043  -7.251  0.00  0.00    +0.000 C 
BRANCH   9  10
ATOM     10  C   UNL     1      -0.064   5.918  -7.326  0.00  0.00    +0.000 A 
ATOM     11  C   UNL     1      -1.330   5.418  -7.043  0.00  0.00    +0.000 A 
ATOM     12  C   UNL     1      -2.441   5.778  -7.783  0.00  0.00    +0.000 A 
ATOM     13  O   UNL     1      -3.615   5.033  -7.797  0.00  0.00    +0.000 OA
ATOM     14  C   UNL     1      -2.353   6.859  -8.644  0.00  0.00    +0.000 A 
ATOM     15  C   UNL     1      -1.141   7.493  -8.832  0.00  0.00    +0.000 A 
ATOM     16  O   UNL     1      -1.023   8.763  -9.377  0.00  0.00    +0.000 OA
ATOM     17  C   UNL     1      -0.024   6.884  -8.325  0.00  0.00    +0.000 A 
ENDBRANCH   9  10
ENDBRANCH   5   8
BRANCH   6  18
ATOM     18  O   UNL     1       0.225   1.067  -6.654  0.00  0.00    +0.000 OA
BRANCH  18  19
ATOM     19  C   UNL     1       0.019   0.208  -7.764  0.00  0.00    +0.000 C 
ATOM     20  C   UNL     1      -0.990   0.774  -8.740  0.00  0.00    +0.000 C 
ATOM     21  C   UNL     1      -1.011  -0.156  -9.933  0.00  0.00    +0.000 C 
ATOM     22  N   UNL     1      -1.532  -1.432  -9.453  0.00  0.00    +0.000 N 
ATOM     23  C   UNL     1      -1.802  -1.506  -8.021  0.00  0.00    +0.000 C 
ATOM     24  C   UNL     1      -0.512  -1.148  -7.318  0.00  0.00    +0.000 C 
BRANCH  22  25
ATOM     25  C   UNL     1      -1.058  -2.608 -10.096  0.00  0.00    +0.000 A 
ATOM     26  C   UNL     1      -0.489  -2.530 -11.360  0.00  0.00    +0.000 A 
ATOM     27  C   UNL     1       0.007  -3.659 -11.982  0.00  0.00    +0.000 A 
ATOM     28  C   UNL     1       0.217  -4.768 -11.196  0.00  0.00    +0.000 A 
ATOM     29 CL   UNL     1       1.301  -6.044 -11.671  0.00  0.00    +0.000 Cl
ATOM     30  N   UNL     1      -0.410  -4.852 -10.023  0.00  0.00    +0.000 NA
ATOM     31  N   UNL     1      -1.061  -3.822  -9.493  0.00  0.00    +0.000 NA
ENDBRANCH  22  25
ENDBRANCH  18  19
ENDBRANCH   6  18
TORSDOF 5
ENDMDL
MODEL 10
REMARK VINA RESULT:      -6.4     33.623     35.766
REMARK  Name = 
REMARK  5 active torsions:
REMARK  status: ('A' for Active; 'I' for Inactive)
REMARK    1  A    between atoms: C_5  and  C_6
REMARK    2  A    between atoms: C_7  and  C_8
REMARK    3  A    between atoms: C_16  and  O_17
REMARK    4  A    between atoms: O_17  and  C_18
REMARK    5  A    between atoms: N_21  and  C_22
REMARK                            x       y       z     vdW  Elec       q    Type
REMARK                         _______ _______ _______ _____ _____    ______ ____
ROOT
ATOM      1  O   UNL     1       5.307   1.619 -11.986  0.00  0.00    +0.000 OA
ATOM      2  C   UNL     1       3.925   1.762 -11.825  0.00  0.00    +0.000 A 
ATOM      3  C   UNL     1       3.104   1.626 -12.936  0.00  0.00    +0.000 A 
ATOM      4  C   UNL     1       1.877   0.982 -12.847  0.00  0.00    +0.000 A 
ATOM      5  C   UNL     1       1.431   0.448 -11.643  0.00  0.00    +0.000 A 
ATOM      6  C   UNL     1       2.121   0.849 -10.506  0.00  0.00    +0.000 A 
ATOM      7  C   UNL     1       3.304   1.573 -10.597  0.00  0.00    +0.000 A 
ENDROOT
BRANCH   5   8
ATOM      8  C   UNL     1       0.796  -0.878 -11.600  0.00  0.00    +0.000 C 
ATOM      9  C   UNL     1      -0.488  -1.047 -11.389  0.00  0.00    +0.000 C 
BRANCH   9  10
ATOM     10  C   UNL     1      -1.039  -1.943 -10.365  0.00  0.00    +0.000 A 
ATOM     11  C   UNL     1      -1.353  -1.455  -9.102  0.00  0.00    +0.000 A 
ATOM     12  C   UNL     1      -1.088  -2.176  -7.953  0.00  0.00    +0.000 A 
ATOM     13  O   UNL     1      -1.018  -1.594  -6.692  0.00  0.00    +0.000 OA
ATOM     14  C   UNL     1      -0.757  -3.517  -8.062  0.00  0.00    +0.000 A 
ATOM     15  C   UNL     1      -0.594  -4.086  -9.310  0.00  0.00    +0.000 A 
ATOM     16  O   UNL     1      -0.616  -5.456  -9.529  0.00  0.00    +0.000 OA
ATOM     17  C   UNL     1      -0.549  -3.244 -10.388  0.00  0.00    +0.000 A 
ENDBRANCH   9  10
ENDBRANCH   5   8
BRANCH   6  18
ATOM     18  O   UNL     1       1.417   0.723  -9.306  0.00  0.00    +0.000 OA
BRANCH  18  19
ATOM     19  C   UNL     1       0.934   1.932  -8.742  0.00  0.00    +0.000 C 
ATOM     20  C   UNL     1       0.421   1.735  -7.332  0.00  0.00    +0.000 C 
ATOM     21  C   UNL     1       0.073   3.108  -6.800  0.00  0.00    +0.000 C 
ATOM     22  N   UNL     1      -1.039   3.594  -7.609  0.00  0.00    +0.000 N 
ATOM     23  C   UNL     1      -1.451   2.726  -8.707  0.00  0.00    +0.000 C 
ATOM     24  C   UNL     1      -0.222   2.495  -9.558  0.00  0.00    +0.000 C 
BRANCH  22  25
ATOM     25  C   UNL     1      -1.128   4.999  -7.811  0.00  0.00    +0.000 A 
ATOM     26  C   UNL     1      -0.004   5.798  -7.646  0.00  0.00    +0.000 A 
ATOM     27  C   UNL     1      -0.067   7.159  -7.873  0.00  0.00    +0.000 A 
ATOM     28  C   UNL     1      -1.155   7.631  -8.569  0.00  0.00    +0.000 A 
ATOM     29 CL   UNL     1      -1.131   9.166  -9.389  0.00  0.00    +0.000 Cl
ATOM     30  N   UNL     1      -2.250   6.874  -8.639  0.00  0.00    +0.000 NA
ATOM     31  N   UNL     1      -2.260   5.605  -8.244  0.00  0.00    +0.000 NA
ENDBRANCH  22  25
ENDBRANCH  18  19
ENDBRANCH   6  18
TORSDOF 5
ENDMDL
