MODEL 1
REMARK VINA RESULT:      -7.4      0.000      0.000
REMARK  Name = 
REMARK  6 active torsions:
REMARK  status: ('A' for Active; 'I' for Inactive)
REMARK    1  A    between atoms: C_2  and  O_5
REMARK    2  A    between atoms: O_5  and  C_6
REMARK    3  A    between atoms: C_13  and  O_14
REMARK    4  A    between atoms: O_14  and  C_15
REMARK    5  A    between atoms: C_21  and  C_22
REMARK    6  A    between atoms: C_23  and  C_24
REMARK                            x       y       z     vdW  Elec       q    Type
REMARK                         _______ _______ _______ _____ _____    ______ ____
ROOT
ATOM      1  C   UNL     1     -36.508  -3.751  -5.958  0.00  0.00    +0.000 A 
ATOM      2  C   UNL     1     -37.457  -3.957  -4.975  0.00  0.00    +0.000 A 
ATOM      3  C   UNL     1     -37.630  -3.054  -3.956  0.00  0.00    +0.000 A 
ATOM      4  O   UNL     1     -38.494  -3.408  -2.921  0.00  0.00    +0.000 OA
ATOM      5  C   UNL     1     -36.702  -2.049  -3.834  0.00  0.00    +0.000 A 
ATOM      6  C   UNL     1     -35.649  -1.946  -4.731  0.00  0.00    +0.000 A 
ATOM      7  C   UNL     1     -35.445  -2.914  -5.707  0.00  0.00    +0.000 A 
ENDROOT
BRANCH   7   8
ATOM      8  C   UNL     1     -34.070  -3.231  -6.103  0.00  0.00    +0.000 C 
ATOM      9  C   UNL     1     -33.008  -2.752  -5.489  0.00  0.00    +0.000 C 
BRANCH   9  10
ATOM     10  C   UNL     1     -31.820  -3.568  -5.272  0.00  0.00    +0.000 A 
ATOM     11  C   UNL     1     -31.582  -4.245  -4.084  0.00  0.00    +0.000 A 
ATOM     12  C   UNL     1     -30.359  -4.814  -3.857  0.00  0.00    +0.000 A 
ATOM     13  O   UNL     1     -30.107  -5.301  -2.574  0.00  0.00    +0.000 OA
ATOM     14  C   UNL     1     -29.355  -4.613  -4.772  0.00  0.00    +0.000 A 
ATOM     15  C   UNL     1     -29.716  -4.299  -6.069  0.00  0.00    +0.000 A 
ATOM     16  O   UNL     1     -28.858  -4.586  -7.126  0.00  0.00    +0.000 OA
ATOM     17  C   UNL     1     -30.988  -3.816  -6.330  0.00  0.00    +0.000 A 
ENDBRANCH   9  10
ENDBRANCH   7   8
BRANCH   1  18
ATOM     18  O   UNL     1     -36.435  -4.520  -7.117  0.00  0.00    +0.000 OA
BRANCH  18  26
ATOM     19  C   UNL     1     -36.700  -7.999  -9.864  0.00  0.00    +0.000 C 
ATOM     20  O   UNL     1     -37.958  -8.164  -9.859  0.00  0.00    +0.000 OA
ATOM     21  N   UNL     1     -36.127  -7.706  -8.585  0.00  0.00    +0.000 N 
ATOM     22  C   UNL     1     -36.357  -8.797  -7.644  0.00  0.00    +0.000 C 
ATOM     23  C   UNL     1     -37.071  -8.331  -6.405  0.00  0.00    +0.000 C 
ATOM     24  O   UNL     1     -38.173  -7.537  -6.668  0.00  0.00    +0.000 OA
ATOM     25  C   UNL     1     -37.839  -6.360  -7.328  0.00  0.00    +0.000 C 
ATOM     26  C   UNL     1     -36.277  -6.049  -6.805  0.00  0.00    +0.000 C 
ATOM     27  C   UNL     1     -35.665  -6.342  -8.338  0.00  0.00    +0.000 C 
BRANCH  19  28
ATOM     28  O   UNL     1     -35.987  -8.824 -10.740  0.00  0.00    +0.000 OA
BRANCH  28  30
ATOM     29  C   UNL     1     -34.561  -8.063 -11.697  0.00  0.00    +0.000 C 
ATOM     30  C   UNL     1     -35.330  -8.247 -11.862  0.00  0.00    +0.000 C 
ATOM     31  C   UNL     1     -36.108  -7.023 -12.323  0.00  0.00    +0.000 C 
ATOM     32  C   UNL     1     -35.452  -9.267 -12.986  0.00  0.00    +0.000 C 
ENDBRANCH  28  30
ENDBRANCH  19  28
ENDBRANCH  18  26
ENDBRANCH   1  18
TORSDOF 6
ENDMDL
MODEL 2
REMARK VINA RESULT:      -7.2     12.869     15.993
REMARK  Name = 
REMARK  6 active torsions:
REMARK  status: ('A' for Active; 'I' for Inactive)
REMARK    1  A    between atoms: C_2  and  O_5
REMARK    2  A    between atoms: O_5  and  C_6
REMARK    3  A    between atoms: C_13  and  O_14
REMARK    4  A    between atoms: O_14  and  C_15
REMARK    5  A    between atoms: C_21  and  C_22
REMARK    6  A    between atoms: C_23  and  C_24
REMARK                            x       y       z     vdW  Elec       q    Type
REMARK                         _______ _______ _______ _____ _____    ______ ____
ROOT
ATOM      1  C   UNL     1     -26.335   9.195  -6.102  0.00  0.00    +0.000 A 
ATOM      2  C   UNL     1     -26.036   8.504  -4.942  0.00  0.00    +0.000 A 
ATOM      3  C   UNL     1     -24.784   7.983  -4.730  0.00  0.00    +0.000 A 
ATOM      4  O   UNL     1     -24.606   7.168  -3.613  0.00  0.00    +0.000 OA
ATOM      5  C   UNL     1     -23.903   7.997  -5.783  0.00  0.00    +0.000 A 
ATOM      6  C   UNL     1     -24.270   8.545  -7.004  0.00  0.00    +0.000 A 
ATOM      7  C   UNL     1     -25.566   8.995  -7.225  0.00  0.00    +0.000 A 
ENDROOT
BRANCH   7   8
ATOM      8  C   UNL     1     -26.137   8.854  -8.567  0.00  0.00    +0.000 C 
ATOM      9  C   UNL     1     -25.996   7.774  -9.307  0.00  0.00    +0.000 C 
BRANCH   9  10
ATOM     10  C   UNL     1     -27.083   7.271 -10.138  0.00  0.00    +0.000 A 
ATOM     11  C   UNL     1     -27.555   5.970 -10.047  0.00  0.00    +0.000 A 
ATOM     12  C   UNL     1     -28.423   5.492 -10.991  0.00  0.00    +0.000 A 
ATOM     13  O   UNL     1     -28.704   4.125 -10.969  0.00  0.00    +0.000 OA
ATOM     14  C   UNL     1     -28.728   6.283 -12.070  0.00  0.00    +0.000 A 
ATOM     15  C   UNL     1     -28.576   7.650 -11.934  0.00  0.00    +0.000 A 
ATOM     16  O   UNL     1     -29.317   8.522 -12.725  0.00  0.00    +0.000 OA
ATOM     17  C   UNL     1     -27.780   8.154 -10.917  0.00  0.00    +0.000 A 
ENDBRANCH   9  10
ENDBRANCH   7   8
BRANCH   1  18
ATOM     18  O   UNL     1     -27.513   9.916  -6.273  0.00  0.00    +0.000 OA
BRANCH  18  26
ATOM     19  C   UNL     1     -31.574   8.720  -7.615  0.00  0.00    +0.000 C 
ATOM     20  O   UNL     1     -32.147   9.851  -7.555  0.00  0.00    +0.000 OA
ATOM     21  N   UNL     1     -30.697   8.432  -6.520  0.00  0.00    +0.000 N 
ATOM     22  C   UNL     1     -31.424   8.417  -5.255  0.00  0.00    +0.000 C 
ATOM     23  C   UNL     1     -30.847   9.389  -4.263  0.00  0.00    +0.000 C 
ATOM     24  O   UNL     1     -30.612  10.645  -4.792  0.00  0.00    +0.000 OA
ATOM     25  C   UNL     1     -29.681  10.624  -5.825  0.00  0.00    +0.000 C 
ATOM     26  C   UNL     1     -28.701   9.320  -5.441  0.00  0.00    +0.000 C 
ATOM     27  C   UNL     1     -29.258   8.462  -6.771  0.00  0.00    +0.000 C 
BRANCH  19  28
ATOM     28  O   UNL     1     -32.347   7.680  -8.141  0.00  0.00    +0.000 OA
BRANCH  28  30
ATOM     29  C   UNL     1     -31.489   7.626  -9.811  0.00  0.00    +0.000 C 
ATOM     30  C   UNL     1     -32.057   7.186  -9.444  0.00  0.00    +0.000 C 
ATOM     31  C   UNL     1     -33.342   7.141 -10.258  0.00  0.00    +0.000 C 
ATOM     32  C   UNL     1     -31.632   5.736  -9.253  0.00  0.00    +0.000 C 
ENDBRANCH  28  30
ENDBRANCH  19  28
ENDBRANCH  18  26
ENDBRANCH   1  18
TORSDOF 6
ENDMDL
MODEL 3
REMARK VINA RESULT:      -7.2      1.581      1.922
REMARK  Name = 
REMARK  6 active torsions:
REMARK  status: ('A' for Active; 'I' for Inactive)
REMARK    1  A    between atoms: C_2  and  O_5
REMARK    2  A    between atoms: O_5  and  C_6
REMARK    3  A    between atoms: C_13  and  O_14
REMARK    4  A    between atoms: O_14  and  C_15
REMARK    5  A    between atoms: C_21  and  C_22
REMARK    6  A    between atoms: C_23  and  C_24
REMARK                            x       y       z     vdW  Elec       q    Type
REMARK                         _______ _______ _______ _____ _____    ______ ____
ROOT
ATOM      1  C   UNL     1     -35.643  -4.151  -6.649  0.00  0.00    +0.000 A 
ATOM      2  C   UNL     1     -36.759  -4.048  -5.838  0.00  0.00    +0.000 A 
ATOM      3  C   UNL     1     -36.930  -2.974  -5.001  0.00  0.00    +0.000 A 
ATOM      4  O   UNL     1     -37.996  -3.020  -4.104  0.00  0.00    +0.000 OA
ATOM      5  C   UNL     1     -35.871  -2.113  -4.848  0.00  0.00    +0.000 A 
ATOM      6  C   UNL     1     -34.688  -2.317  -5.541  0.00  0.00    +0.000 A 
ATOM      7  C   UNL     1     -34.504  -3.452  -6.322  0.00  0.00    +0.000 A 
ENDROOT
BRANCH   7   8
ATOM      8  C   UNL     1     -33.160  -4.031  -6.411  0.00  0.00    +0.000 C 
ATOM      9  C   UNL     1     -32.080  -3.437  -5.949  0.00  0.00    +0.000 C 
BRANCH   9  10
ATOM     10  C   UNL     1     -31.016  -4.189  -5.295  0.00  0.00    +0.000 A 
ATOM     11  C   UNL     1     -31.194  -5.480  -4.822  0.00  0.00    +0.000 A 
ATOM     12  C   UNL     1     -30.236  -6.054  -4.030  0.00  0.00    +0.000 A 
ATOM     13  O   UNL     1     -30.552  -7.266  -3.417  0.00  0.00    +0.000 OA
ATOM     14  C   UNL     1     -29.161  -5.295  -3.637  0.00  0.00    +0.000 A 
ATOM     15  C   UNL     1     -28.821  -4.204  -4.413  0.00  0.00    +0.000 A 
ATOM     16  O   UNL     1     -27.517  -3.718  -4.410  0.00  0.00    +0.000 OA
ATOM     17  C   UNL     1     -29.749  -3.673  -5.296  0.00  0.00    +0.000 A 
ENDBRANCH   9  10
ENDBRANCH   7   8
BRANCH   1  18
ATOM     18  O   UNL     1     -35.523  -5.102  -7.658  0.00  0.00    +0.000 OA
BRANCH  18  26
ATOM     19  C   UNL     1     -37.016  -7.116 -11.323  0.00  0.00    +0.000 C 
ATOM     20  O   UNL     1     -37.559  -6.120 -11.893  0.00  0.00    +0.000 OA
ATOM     21  N   UNL     1     -37.239  -7.195  -9.910  0.00  0.00    +0.000 N 
ATOM     22  C   UNL     1     -38.662  -7.320  -9.610  0.00  0.00    +0.000 C 
ATOM     23  C   UNL     1     -39.141  -6.226  -8.695  0.00  0.00    +0.000 C 
ATOM     24  O   UNL     1     -38.730  -4.963  -9.080  0.00  0.00    +0.000 OA
ATOM     25  C   UNL     1     -37.346  -4.827  -9.073  0.00  0.00    +0.000 C 
ATOM     26  C   UNL     1     -36.854  -5.900  -7.883  0.00  0.00    +0.000 C 
ATOM     27  C   UNL     1     -36.120  -6.886  -9.023  0.00  0.00    +0.000 C 
BRANCH  19  28
ATOM     28  O   UNL     1     -37.008  -8.303 -12.063  0.00  0.00    +0.000 OA
BRANCH  28  30
ATOM     29  C   UNL     1     -35.697  -9.516 -12.646  0.00  0.00    +0.000 C 
ATOM     30  C   UNL     1     -35.805  -8.718 -12.701  0.00  0.00    +0.000 C 
ATOM     31  C   UNL     1     -34.632  -7.954 -12.103  0.00  0.00    +0.000 C 
ATOM     32  C   UNL     1     -35.917  -8.248 -14.145  0.00  0.00    +0.000 C 
ENDBRANCH  28  30
ENDBRANCH  19  28
ENDBRANCH  18  26
ENDBRANCH   1  18
TORSDOF 6
ENDMDL
MODEL 4
REMARK VINA RESULT:      -7.0     17.231     21.383
REMARK  Name = 
REMARK  6 active torsions:
REMARK  status: ('A' for Active; 'I' for Inactive)
REMARK    1  A    between atoms: C_2  and  O_5
REMARK    2  A    between atoms: O_5  and  C_6
REMARK    3  A    between atoms: C_13  and  O_14
REMARK    4  A    between atoms: O_14  and  C_15
REMARK    5  A    between atoms: C_21  and  C_22
REMARK    6  A    between atoms: C_23  and  C_24
REMARK                            x       y       z     vdW  Elec       q    Type
REMARK                         _______ _______ _______ _____ _____    ______ ____
ROOT
ATOM      1  C   UNL     1     -23.146   9.056  -2.798  0.00  0.00    +0.000 A 
ATOM      2  C   UNL     1     -23.488   8.615  -1.533  0.00  0.00    +0.000 A 
ATOM      3  C   UNL     1     -23.866   7.314  -1.315  0.00  0.00    +0.000 A 
ATOM      4  O   UNL     1     -24.345   6.987  -0.047  0.00  0.00    +0.000 OA
ATOM      5  C   UNL     1     -24.084   6.522  -2.415  0.00  0.00    +0.000 A 
ATOM      6  C   UNL     1     -23.900   7.024  -3.695  0.00  0.00    +0.000 A 
ATOM      7  C   UNL     1     -23.594   8.364  -3.899  0.00  0.00    +0.000 A 
ENDROOT
BRANCH   7   8
ATOM      8  C   UNL     1     -24.117   9.027  -5.098  0.00  0.00    +0.000 C 
ATOM      9  C   UNL     1     -24.141   8.463  -6.288  0.00  0.00    +0.000 C 
BRANCH   9  10
ATOM     10  C   UNL     1     -25.262   8.656  -7.201  0.00  0.00    +0.000 A 
ATOM     11  C   UNL     1     -25.759   7.640  -8.002  0.00  0.00    +0.000 A 
ATOM     12  C   UNL     1     -26.662   7.929  -8.989  0.00  0.00    +0.000 A 
ATOM     13  O   UNL     1     -26.972   6.913  -9.892  0.00  0.00    +0.000 OA
ATOM     14  C   UNL     1     -26.979   9.243  -9.231  0.00  0.00    +0.000 A 
ATOM     15  C   UNL     1     -26.794  10.152  -8.207  0.00  0.00    +0.000 A 
ATOM     16  O   UNL     1     -27.537  11.328  -8.168  0.00  0.00    +0.000 OA
ATOM     17  C   UNL     1     -25.960   9.832  -7.147  0.00  0.00    +0.000 A 
ENDBRANCH   9  10
ENDBRANCH   7   8
BRANCH   1  18
ATOM     18  O   UNL     1     -22.560  10.297  -3.037  0.00  0.00    +0.000 OA
BRANCH  18  26
ATOM     19  C   UNL     1     -22.187  14.656  -3.797  0.00  0.00    +0.000 C 
ATOM     20  O   UNL     1     -21.317  14.940  -2.918  0.00  0.00    +0.000 OA
ATOM     21  N   UNL     1     -23.203  13.743  -3.364  0.00  0.00    +0.000 N 
ATOM     22  C   UNL     1     -23.963  14.295  -2.248  0.00  0.00    +0.000 C 
ATOM     23  C   UNL     1     -23.932  13.392  -1.046  0.00  0.00    +0.000 C 
ATOM     24  O   UNL     1     -22.665  12.938  -0.728  0.00  0.00    +0.000 OA
ATOM     25  C   UNL     1     -22.102  12.170  -1.741  0.00  0.00    +0.000 C 
ATOM     26  C   UNL     1     -23.432  11.480  -2.492  0.00  0.00    +0.000 C 
ATOM     27  C   UNL     1     -23.160  12.377  -3.882  0.00  0.00    +0.000 C 
BRANCH  19  28
ATOM     28  O   UNL     1     -22.554  15.707  -4.644  0.00  0.00    +0.000 OA
BRANCH  28  30
ATOM     29  C   UNL     1     -22.795  15.281  -6.458  0.00  0.00    +0.000 C 
ATOM     30  C   UNL     1     -22.215  15.640  -6.025  0.00  0.00    +0.000 C 
ATOM     31  C   UNL     1     -20.881  14.925  -6.178  0.00  0.00    +0.000 C 
ATOM     32  C   UNL     1     -21.972  17.078  -6.463  0.00  0.00    +0.000 C 
ENDBRANCH  28  30
ENDBRANCH  19  28
ENDBRANCH  18  26
ENDBRANCH   1  18
TORSDOF 6
ENDMDL
MODEL 5
REMARK VINA RESULT:      -6.9     14.001     16.503
REMARK  Name = 
REMARK  6 active torsions:
REMARK  status: ('A' for Active; 'I' for Inactive)
REMARK    1  A    between atoms: C_2  and  O_5
REMARK    2  A    between atoms: O_5  and  C_6
REMARK    3  A    between atoms: C_13  and  O_14
REMARK    4  A    between atoms: O_14  and  C_15
REMARK    5  A    between atoms: C_21  and  C_22
REMARK    6  A    between atoms: C_23  and  C_24
REMARK                            x       y       z     vdW  Elec       q    Type
REMARK                         _______ _______ _______ _____ _____    ______ ____
ROOT
ATOM      1  C   UNL     1     -29.251   6.352  -2.571  0.00  0.00    +0.000 A 
ATOM      2  C   UNL     1     -30.098   6.593  -1.505  0.00  0.00    +0.000 A 
ATOM      3  C   UNL     1     -31.331   7.165  -1.696  0.00  0.00    +0.000 A 
ATOM      4  O   UNL     1     -32.059   7.520  -0.561  0.00  0.00    +0.000 OA
ATOM      5  C   UNL     1     -31.611   7.671  -2.941  0.00  0.00    +0.000 A 
ATOM      6  C   UNL     1     -30.684   7.574  -3.968  0.00  0.00    +0.000 A 
ATOM      7  C   UNL     1     -29.413   7.063  -3.737  0.00  0.00    +0.000 A 
ENDROOT
BRANCH   7   8
ATOM      8  C   UNL     1     -28.287   7.615  -4.497  0.00  0.00    +0.000 C 
ATOM      9  C   UNL     1     -27.578   8.650  -4.096  0.00  0.00    +0.000 C 
BRANCH   9  10
ATOM     10  C   UNL     1     -26.134   8.708  -4.294  0.00  0.00    +0.000 A 
ATOM     11  C   UNL     1     -25.249   9.017  -3.271  0.00  0.00    +0.000 A 
ATOM     12  C   UNL     1     -23.935   9.268  -3.559  0.00  0.00    +0.000 A 
ATOM     13  O   UNL     1     -23.138   9.771  -2.531  0.00  0.00    +0.000 OA
ATOM     14  C   UNL     1     -23.542   9.309  -4.875  0.00  0.00    +0.000 A 
ATOM     15  C   UNL     1     -24.312   8.631  -5.801  0.00  0.00    +0.000 A 
ATOM     16  O   UNL     1     -23.748   8.188  -6.993  0.00  0.00    +0.000 OA
ATOM     17  C   UNL     1     -25.615   8.279  -5.485  0.00  0.00    +0.000 A 
ENDBRANCH   9  10
ENDBRANCH   7   8
BRANCH   1  18
ATOM     18  O   UNL     1     -28.090   5.590  -2.461  0.00  0.00    +0.000 OA
BRANCH  18  26
ATOM     19  C   UNL     1     -24.144   4.632  -0.664  0.00  0.00    +0.000 C 
ATOM     20  O   UNL     1     -24.114   3.385  -0.898  0.00  0.00    +0.000 OA
ATOM     21  N   UNL     1     -25.412   5.130  -0.222  0.00  0.00    +0.000 N 
ATOM     22  C   UNL     1     -25.813   4.504   1.034  0.00  0.00    +0.000 C 
ATOM     23  C   UNL     1     -27.152   3.829   0.923  0.00  0.00    +0.000 C 
ATOM     24  O   UNL     1     -27.277   3.031  -0.200  0.00  0.00    +0.000 OA
ATOM     25  C   UNL     1     -27.164   3.751  -1.383  0.00  0.00    +0.000 C 
ATOM     26  C   UNL     1     -27.726   5.274  -0.968  0.00  0.00    +0.000 C 
ATOM     27  C   UNL     1     -26.196   5.933  -1.158  0.00  0.00    +0.000 C 
BRANCH  19  28
ATOM     28  O   UNL     1     -22.984   5.167  -0.095  0.00  0.00    +0.000 OA
BRANCH  28  30
ATOM     29  C   UNL     1     -22.558   6.331  -1.508  0.00  0.00    +0.000 C 
ATOM     30  C   UNL     1     -22.334   6.260  -0.736  0.00  0.00    +0.000 C 
ATOM     31  C   UNL     1     -20.827   6.090  -0.606  0.00  0.00    +0.000 C 
ATOM     32  C   UNL     1     -22.687   7.493   0.085  0.00  0.00    +0.000 C 
ENDBRANCH  28  30
ENDBRANCH  19  28
ENDBRANCH  18  26
ENDBRANCH   1  18
TORSDOF 6
ENDMDL
MODEL 6
REMARK VINA RESULT:      -6.8     18.703     21.287
REMARK  Name = 
REMARK  6 active torsions:
REMARK  status: ('A' for Active; 'I' for Inactive)
REMARK    1  A    between atoms: C_2  and  O_5
REMARK    2  A    between atoms: O_5  and  C_6
REMARK    3  A    between atoms: C_13  and  O_14
REMARK    4  A    between atoms: O_14  and  C_15
REMARK    5  A    between atoms: C_21  and  C_22
REMARK    6  A    between atoms: C_23  and  C_24
REMARK                            x       y       z     vdW  Elec       q    Type
REMARK                         _______ _______ _______ _____ _____    ______ ____
ROOT
ATOM      1  C   UNL     1     -17.750  -8.199   3.833  0.00  0.00    +0.000 A 
ATOM      2  C   UNL     1     -17.809  -7.300   4.882  0.00  0.00    +0.000 A 
ATOM      3  C   UNL     1     -16.940  -6.240   4.957  0.00  0.00    +0.000 A 
ATOM      4  O   UNL     1     -16.959  -5.472   6.120  0.00  0.00    +0.000 OA
ATOM      5  C   UNL     1     -15.891  -6.215   4.071  0.00  0.00    +0.000 A 
ATOM      6  C   UNL     1     -15.742  -7.217   3.124  0.00  0.00    +0.000 A 
ATOM      7  C   UNL     1     -16.584  -8.322   3.114  0.00  0.00    +0.000 A 
ENDROOT
BRANCH   7   8
ATOM      8  C   UNL     1     -16.036  -9.617   2.700  0.00  0.00    +0.000 C 
ATOM      9  C   UNL     1     -15.650 -10.547   3.549  0.00  0.00    +0.000 C 
BRANCH   9  10
ATOM     10  C   UNL     1     -15.889 -11.962   3.292  0.00  0.00    +0.000 A 
ATOM     11  C   UNL     1     -15.624 -12.949   4.229  0.00  0.00    +0.000 A 
ATOM     12  C   UNL     1     -15.663 -14.267   3.860  0.00  0.00    +0.000 A 
ATOM     13  O   UNL     1     -15.191 -15.204   4.780  0.00  0.00    +0.000 OA
ATOM     14  C   UNL     1     -15.865 -14.579   2.539  0.00  0.00    +0.000 A 
ATOM     15  C   UNL     1     -16.500 -13.643   1.743  0.00  0.00    +0.000 A 
ATOM     16  O   UNL     1     -17.190 -14.043   0.604  0.00  0.00    +0.000 OA
ATOM     17  C   UNL     1     -16.557 -12.320   2.152  0.00  0.00    +0.000 A 
ENDBRANCH   9  10
ENDBRANCH   7   8
BRANCH   1  18
ATOM     18  O   UNL     1     -18.731  -9.159   3.601  0.00  0.00    +0.000 OA
BRANCH  18  26
ATOM     19  C   UNL     1     -20.849 -12.895   4.732  0.00  0.00    +0.000 C 
ATOM     20  O   UNL     1     -21.941 -12.702   4.115  0.00  0.00    +0.000 OA
ATOM     21  N   UNL     1     -20.320 -11.739   5.393  0.00  0.00    +0.000 N 
ATOM     22  C   UNL     1     -21.244 -11.249   6.411  0.00  0.00    +0.000 C 
ATOM     23  C   UNL     1     -21.619  -9.810   6.183  0.00  0.00    +0.000 C 
ATOM     24  O   UNL     1     -21.980  -9.533   4.876  0.00  0.00    +0.000 OA
ATOM     25  C   UNL     1     -20.945  -9.759   3.976  0.00  0.00    +0.000 C 
ATOM     26  C   UNL     1     -19.567  -9.479   4.889  0.00  0.00    +0.000 C 
ATOM     27  C   UNL     1     -19.142 -11.099   4.814  0.00  0.00    +0.000 C 
BRANCH  19  28
ATOM     28  O   UNL     1     -20.723 -14.138   5.361  0.00  0.00    +0.000 OA
BRANCH  28  30
ATOM     29  C   UNL     1     -19.026 -14.943   5.349  0.00  0.00    +0.000 C 
ATOM     30  C   UNL     1     -19.709 -15.038   4.929  0.00  0.00    +0.000 C 
ATOM     31  C   UNL     1     -19.476 -14.851   3.437  0.00  0.00    +0.000 C 
ATOM     32  C   UNL     1     -20.297 -16.434   5.088  0.00  0.00    +0.000 C 
ENDBRANCH  28  30
ENDBRANCH  19  28
ENDBRANCH  18  26
ENDBRANCH   1  18
TORSDOF 6
ENDMDL
MODEL 7
REMARK VINA RESULT:      -6.7     12.958     15.337
REMARK  Name = 
REMARK  6 active torsions:
REMARK  status: ('A' for Active; 'I' for Inactive)
REMARK    1  A    between atoms: C_2  and  O_5
REMARK    2  A    between atoms: O_5  and  C_6
REMARK    3  A    between atoms: C_13  and  O_14
REMARK    4  A    between atoms: O_14  and  C_15
REMARK    5  A    between atoms: C_21  and  C_22
REMARK    6  A    between atoms: C_23  and  C_24
REMARK                            x       y       z     vdW  Elec       q    Type
REMARK                         _______ _______ _______ _____ _____    ______ ____
ROOT
ATOM      1  C   UNL     1     -32.274  10.784 -11.550  0.00  0.00    +0.000 A 
ATOM      2  C   UNL     1     -32.619  12.027 -11.052  0.00  0.00    +0.000 A 
ATOM      3  C   UNL     1     -31.673  13.004 -10.868  0.00  0.00    +0.000 A 
ATOM      4  O   UNL     1     -32.071  14.171 -10.217  0.00  0.00    +0.000 OA
ATOM      5  C   UNL     1     -30.354  12.645 -11.002  0.00  0.00    +0.000 A 
ATOM      6  C   UNL     1     -30.006  11.346 -11.340  0.00  0.00    +0.000 A 
ATOM      7  C   UNL     1     -30.972  10.352 -11.445  0.00  0.00    +0.000 A 
ENDROOT
BRANCH   7   8
ATOM      8  C   UNL     1     -30.615   8.984 -11.057  0.00  0.00    +0.000 C 
ATOM      9  C   UNL     1     -30.139   8.091 -11.898  0.00  0.00    +0.000 C 
BRANCH   9  10
ATOM     10  C   UNL     1     -29.094   7.153 -11.506  0.00  0.00    +0.000 A 
ATOM     11  C   UNL     1     -29.347   5.815 -11.245  0.00  0.00    +0.000 A 
ATOM     12  C   UNL     1     -28.376   5.036 -10.675  0.00  0.00    +0.000 A 
ATOM     13  O   UNL     1     -28.746   3.761 -10.248  0.00  0.00    +0.000 OA
ATOM     14  C   UNL     1     -27.201   5.627 -10.279  0.00  0.00    +0.000 A 
ATOM     15  C   UNL     1     -26.835   6.811 -10.889  0.00  0.00    +0.000 A 
ATOM     16  O   UNL     1     -25.497   7.187 -10.947  0.00  0.00    +0.000 OA
ATOM     17  C   UNL     1     -27.789   7.562 -11.559  0.00  0.00    +0.000 A 
ENDBRANCH   9  10
ENDBRANCH   7   8
BRANCH   1  18
ATOM     18  O   UNL     1     -33.214   9.838 -11.949  0.00  0.00    +0.000 OA
BRANCH  18  26
ATOM     19  C   UNL     1     -35.121   6.899  -9.221  0.00  0.00    +0.000 C 
ATOM     20  O   UNL     1     -35.742   6.200 -10.080  0.00  0.00    +0.000 OA
ATOM     21  N   UNL     1     -35.168   8.313  -9.449  0.00  0.00    +0.000 N 
ATOM     22  C   UNL     1     -36.541   8.805  -9.411  0.00  0.00    +0.000 C 
ATOM     23  C   UNL     1     -36.918   9.517 -10.681  0.00  0.00    +0.000 C 
ATOM     24  O   UNL     1     -36.573   8.823 -11.827  0.00  0.00    +0.000 OA
ATOM     25  C   UNL     1     -35.201   8.632 -11.942  0.00  0.00    +0.000 C 
ATOM     26  C   UNL     1     -34.553   9.953 -11.141  0.00  0.00    +0.000 C 
ATOM     27  C   UNL     1     -33.952   8.969  -9.924  0.00  0.00    +0.000 C 
BRANCH  19  28
ATOM     28  O   UNL     1     -35.189   6.435  -7.904  0.00  0.00    +0.000 OA
BRANCH  28  30
ATOM     29  C   UNL     1     -33.413   5.835  -7.770  0.00  0.00    +0.000 C 
ATOM     30  C   UNL     1     -33.993   6.033  -7.245  0.00  0.00    +0.000 C 
ATOM     31  C   UNL     1     -34.305   4.881  -6.300  0.00  0.00    +0.000 C 
ATOM     32  C   UNL     1     -33.594   7.204  -6.357  0.00  0.00    +0.000 C 
ENDBRANCH  28  30
ENDBRANCH  19  28
ENDBRANCH  18  26
ENDBRANCH   1  18
TORSDOF 6
ENDMDL
MODEL 8
REMARK VINA RESULT:      -6.7     35.865     39.229
REMARK  Name = 
REMARK  6 active torsions:
REMARK  status: ('A' for Active; 'I' for Inactive)
REMARK    1  A    between atoms: C_2  and  O_5
REMARK    2  A    between atoms: O_5  and  C_6
REMARK    3  A    between atoms: C_13  and  O_14
REMARK    4  A    between atoms: O_14  and  C_15
REMARK    5  A    between atoms: C_21  and  C_22
REMARK    6  A    between atoms: C_23  and  C_24
REMARK                            x       y       z     vdW  Elec       q    Type
REMARK                         _______ _______ _______ _____ _____    ______ ____
ROOT
ATOM      1  C   UNL     1     -12.483  19.291 -21.559  0.00  0.00    +0.000 A 
ATOM      2  C   UNL     1     -13.394  18.253 -21.631  0.00  0.00    +0.000 A 
ATOM      3  C   UNL     1     -13.497  17.329 -20.621  0.00  0.00    +0.000 A 
ATOM      4  O   UNL     1     -14.324  16.228 -20.838  0.00  0.00    +0.000 OA
ATOM      5  C   UNL     1     -12.538  17.352 -19.638  0.00  0.00    +0.000 A 
ATOM      6  C   UNL     1     -11.523  18.297 -19.663  0.00  0.00    +0.000 A 
ATOM      7  C   UNL     1     -11.389  19.173 -20.733  0.00  0.00    +0.000 A 
ENDROOT
BRANCH   7   8
ATOM      8  C   UNL     1     -10.041  19.589 -21.133  0.00  0.00    +0.000 C 
ATOM      9  C   UNL     1      -9.475  20.706 -20.727  0.00  0.00    +0.000 C 
BRANCH   9  10
ATOM     10  C   UNL     1      -8.055  20.767 -20.400  0.00  0.00    +0.000 A 
ATOM     11  C   UNL     1      -7.229  21.792 -20.836  0.00  0.00    +0.000 A 
ATOM     12  C   UNL     1      -5.873  21.686 -20.684  0.00  0.00    +0.000 A 
ATOM     13  O   UNL     1      -5.080  22.642 -21.319  0.00  0.00    +0.000 OA
ATOM     14  C   UNL     1      -5.352  20.515 -20.191  0.00  0.00    +0.000 A 
ATOM     15  C   UNL     1      -6.175  19.713 -19.424  0.00  0.00    +0.000 A 
ATOM     16  O   UNL     1      -5.631  18.835 -18.492  0.00  0.00    +0.000 OA
ATOM     17  C   UNL     1      -7.550  19.877 -19.491  0.00  0.00    +0.000 A 
ENDBRANCH   9  10
ENDBRANCH   7   8
BRANCH   1  18
ATOM     18  O   UNL     1     -12.482  20.364 -22.446  0.00  0.00    +0.000 OA
BRANCH  18  26
ATOM     19  C   UNL     1     -10.946  21.765 -26.370  0.00  0.00    +0.000 C 
ATOM     20  O   UNL     1     -11.658  22.807 -26.504  0.00  0.00    +0.000 OA
ATOM     21  N   UNL     1     -11.642  20.624 -25.855  0.00  0.00    +0.000 N 
ATOM     22  C   UNL     1     -12.725  20.224 -26.747  0.00  0.00    +0.000 C 
ATOM     23  C   UNL     1     -14.054  20.201 -26.043  0.00  0.00    +0.000 C 
ATOM     24  O   UNL     1     -14.299  21.334 -25.289  0.00  0.00    +0.000 OA
ATOM     25  C   UNL     1     -13.376  21.504 -24.263  0.00  0.00    +0.000 C 
ATOM     26  C   UNL     1     -12.911  19.937 -23.893  0.00  0.00    +0.000 C 
ATOM     27  C   UNL     1     -11.365  20.217 -24.480  0.00  0.00    +0.000 C 
BRANCH  19  28
ATOM     28  O   UNL     1      -9.978  21.565 -27.359  0.00  0.00    +0.000 OA
BRANCH  28  30
ATOM     29  C   UNL     1      -8.457  20.616 -26.799  0.00  0.00    +0.000 C 
ATOM     30  C   UNL     1      -8.618  21.386 -26.978  0.00  0.00    +0.000 C 
ATOM     31  C   UNL     1      -8.301  22.310 -25.811  0.00  0.00    +0.000 C 
ATOM     32  C   UNL     1      -7.788  21.894 -28.150  0.00  0.00    +0.000 C 
ENDBRANCH  28  30
ENDBRANCH  19  28
ENDBRANCH  18  26
ENDBRANCH   1  18
TORSDOF 6
ENDMDL
MODEL 9
REMARK VINA RESULT:      -6.7      2.863      4.503
REMARK  Name = 
REMARK  6 active torsions:
REMARK  status: ('A' for Active; 'I' for Inactive)
REMARK    1  A    between atoms: C_2  and  O_5
REMARK    2  A    between atoms: O_5  and  C_6
REMARK    3  A    between atoms: C_13  and  O_14
REMARK    4  A    between atoms: O_14  and  C_15
REMARK    5  A    between atoms: C_21  and  C_22
REMARK    6  A    between atoms: C_23  and  C_24
REMARK                            x       y       z     vdW  Elec       q    Type
REMARK                         _______ _______ _______ _____ _____    ______ ____
ROOT
ATOM      1  C   UNL     1     -35.544  -9.239  -6.178  0.00  0.00    +0.000 A 
ATOM      2  C   UNL     1     -35.789 -10.582  -5.959  0.00  0.00    +0.000 A 
ATOM      3  C   UNL     1     -36.130 -11.046  -4.713  0.00  0.00    +0.000 A 
ATOM      4  O   UNL     1     -36.206 -12.428  -4.539  0.00  0.00    +0.000 OA
ATOM      5  C   UNL     1     -36.024 -10.173  -3.658  0.00  0.00    +0.000 A 
ATOM      6  C   UNL     1     -35.613  -8.865  -3.863  0.00  0.00    +0.000 A 
ATOM      7  C   UNL     1     -35.197  -8.434  -5.117  0.00  0.00    +0.000 A 
ENDROOT
BRANCH   7   8
ATOM      8  C   UNL     1     -34.135  -7.427  -5.195  0.00  0.00    +0.000 C 
ATOM      9  C   UNL     1     -34.132  -6.317  -4.487  0.00  0.00    +0.000 C 
BRANCH   9  10
ATOM     10  C   UNL     1     -32.901  -5.777  -3.922  0.00  0.00    +0.000 A 
ATOM     11  C   UNL     1     -31.802  -5.445  -4.700  0.00  0.00    +0.000 A 
ATOM     12  C   UNL     1     -30.608  -5.148  -4.101  0.00  0.00    +0.000 A 
ATOM     13  O   UNL     1     -29.490  -5.023  -4.927  0.00  0.00    +0.000 OA
ATOM     14  C   UNL     1     -30.497  -5.287  -2.740  0.00  0.00    +0.000 A 
ATOM     15  C   UNL     1     -31.655  -5.226  -1.987  0.00  0.00    +0.000 A 
ATOM     16  O   UNL     1     -31.605  -4.840  -0.652  0.00  0.00    +0.000 OA
ATOM     17  C   UNL     1     -32.883  -5.424  -2.600  0.00  0.00    +0.000 A 
ENDBRANCH   9  10
ENDBRANCH   7   8
BRANCH   1  18
ATOM     18  O   UNL     1     -35.402  -8.690  -7.450  0.00  0.00    +0.000 OA
BRANCH  18  26
ATOM     19  C   UNL     1     -36.623  -7.929 -11.651  0.00  0.00    +0.000 C 
ATOM     20  O   UNL     1     -36.121  -6.773 -11.800  0.00  0.00    +0.000 OA
ATOM     21  N   UNL     1     -37.264  -8.147 -10.388  0.00  0.00    +0.000 N 
ATOM     22  C   UNL     1     -38.380  -7.226 -10.200  0.00  0.00    +0.000 C 
ATOM     23  C   UNL     1     -38.232  -6.412  -8.944  0.00  0.00    +0.000 C 
ATOM     24  O   UNL     1     -36.976  -5.854  -8.792  0.00  0.00    +0.000 OA
ATOM     25  C   UNL     1     -35.973  -6.812  -8.694  0.00  0.00    +0.000 C 
ATOM     26  C   UNL     1     -36.755  -8.125  -8.006  0.00  0.00    +0.000 C 
ATOM     27  C   UNL     1     -36.592  -9.011  -9.421  0.00  0.00    +0.000 C 
BRANCH  19  28
ATOM     28  O   UNL     1     -37.200  -8.488 -12.795  0.00  0.00    +0.000 OA
BRANCH  28  30
ATOM     29  C   UNL     1     -35.805  -9.658 -13.256  0.00  0.00    +0.000 C 
ATOM     30  C   UNL     1     -36.401  -9.291 -13.657  0.00  0.00    +0.000 C 
ATOM     31  C   UNL     1     -35.863  -8.427 -14.789  0.00  0.00    +0.000 C 
ATOM     32  C   UNL     1     -37.358 -10.282 -14.307  0.00  0.00    +0.000 C 
ENDBRANCH  28  30
ENDBRANCH  19  28
ENDBRANCH  18  26
ENDBRANCH   1  18
TORSDOF 6
ENDMDL
MODEL 10
REMARK VINA RESULT:      -6.3     33.617     35.662
REMARK  Name = 
REMARK  6 active torsions:
REMARK  status: ('A' for Active; 'I' for Inactive)
REMARK    1  A    between atoms: C_2  and  O_5
REMARK    2  A    between atoms: O_5  and  C_6
REMARK    3  A    between atoms: C_13  and  O_14
REMARK    4  A    between atoms: O_14  and  C_15
REMARK    5  A    between atoms: C_21  and  C_22
REMARK    6  A    between atoms: C_23  and  C_24
REMARK                            x       y       z     vdW  Elec       q    Type
REMARK                         _______ _______ _______ _____ _____    ______ ____
ROOT
ATOM      1  C   UNL     1      -0.755  -5.128  -8.922  0.00  0.00    +0.000 A 
ATOM      2  C   UNL     1      -1.448  -5.584  -7.816  0.00  0.00    +0.000 A 
ATOM      3  C   UNL     1      -1.153  -6.796  -7.245  0.00  0.00    +0.000 A 
ATOM      4  O   UNL     1      -1.997  -7.255  -6.234  0.00  0.00    +0.000 OA
ATOM      5  C   UNL     1      -0.292  -7.625  -7.922  0.00  0.00    +0.000 A 
ATOM      6  C   UNL     1       0.273  -7.226  -9.124  0.00  0.00    +0.000 A 
ATOM      7  C   UNL     1      -0.097  -6.030  -9.726  0.00  0.00    +0.000 A 
ENDROOT
BRANCH   7   8
ATOM      8  C   UNL     1      -0.127  -5.962 -11.190  0.00  0.00    +0.000 C 
ATOM      9  C   UNL     1       0.680  -6.655 -11.966  0.00  0.00    +0.000 C 
BRANCH   9  10
ATOM     10  C   UNL     1       0.216  -7.241 -13.219  0.00  0.00    +0.000 A 
ATOM     11  C   UNL     1      -0.496  -8.430 -13.272  0.00  0.00    +0.000 A 
ATOM     12  C   UNL     1      -0.716  -9.040 -14.477  0.00  0.00    +0.000 A 
ATOM     13  O   UNL     1      -1.254 -10.326 -14.455  0.00  0.00    +0.000 OA
ATOM     14  C   UNL     1      -0.135  -8.510 -15.603  0.00  0.00    +0.000 A 
ATOM     15  C   UNL     1       0.210  -7.172 -15.584  0.00  0.00    +0.000 A 
ATOM     16  O   UNL     1       0.301  -6.453 -16.771  0.00  0.00    +0.000 OA
ATOM     17  C   UNL     1       0.337  -6.512 -14.371  0.00  0.00    +0.000 A 
ENDBRANCH   9  10
ENDBRANCH   7   8
BRANCH   1  18
ATOM     18  O   UNL     1      -0.870  -3.828  -9.408  0.00  0.00    +0.000 OA
BRANCH  18  26
ATOM     19  C   UNL     1       0.461   0.406  -9.563  0.00  0.00    +0.000 C 
ATOM     20  O   UNL     1       1.709   0.230  -9.411  0.00  0.00    +0.000 OA
ATOM     21  N   UNL     1      -0.367  -0.410  -8.726  0.00  0.00    +0.000 N 
ATOM     22  C   UNL     1      -0.119  -0.135  -7.315  0.00  0.00    +0.000 C 
ATOM     23  C   UNL     1       0.278  -1.375  -6.562  0.00  0.00    +0.000 C 
ATOM     24  O   UNL     1       1.256  -2.119  -7.197  0.00  0.00    +0.000 OA
ATOM     25  C   UNL     1       0.844  -2.594  -8.437  0.00  0.00    +0.000 C 
ATOM     26  C   UNL     1      -0.814  -2.759  -8.261  0.00  0.00    +0.000 C 
ATOM     27  C   UNL     1      -1.092  -1.515  -9.350  0.00  0.00    +0.000 C 
BRANCH  19  28
ATOM     28  O   UNL     1       0.064   1.723  -9.811  0.00  0.00    +0.000 OA
BRANCH  28  30
ATOM     29  C   UNL     1      -1.257   2.207 -11.056  0.00  0.00    +0.000 C 
ATOM     30  C   UNL     1      -0.464   2.063 -11.089  0.00  0.00    +0.000 C 
ATOM     31  C   UNL     1      -0.138   0.952 -12.076  0.00  0.00    +0.000 C 
ATOM     32  C   UNL     1       0.327   3.279 -11.554  0.00  0.00    +0.000 C 
ENDBRANCH  28  30
ENDBRANCH  19  28
ENDBRANCH  18  26
ENDBRANCH   1  18
TORSDOF 6
ENDMDL
