MODEL 1
REMARK VINA RESULT:      -7.4      0.000      0.000
REMARK  Name = 
REMARK  7 active torsions:
REMARK  status: ('A' for Active; 'I' for Inactive)
REMARK    1  A    between atoms: C_2  and  O_5
REMARK    2  A    between atoms: O_5  and  C_6
REMARK    3  A    between atoms: C_12  and  C_13
REMARK    4  A    between atoms: C_13  and  O_14
REMARK    5  A    between atoms: O_14  and  C_15
REMARK    6  A    between atoms: C_21  and  C_22
REMARK    7  A    between atoms: C_23  and  C_24
REMARK                            x       y       z     vdW  Elec       q    Type
REMARK                         _______ _______ _______ _____ _____    ______ ____
ROOT
ATOM      1  C   UNL     1     -22.411  10.891  -2.533  0.00  0.00    +0.000 A 
ATOM      2  C   UNL     1     -21.983  12.193  -2.306  0.00  0.00    +0.000 A 
ATOM      3  C   UNL     1     -22.399  13.221  -3.143  0.00  0.00    +0.000 A 
ATOM      4  O   UNL     1     -21.548  14.199  -3.623  0.00  0.00    +0.000 OA
ATOM      5  C   UNL     1     -23.558  12.975  -3.869  0.00  0.00    +0.000 A 
ATOM      6  C   UNL     1     -24.102  11.697  -3.943  0.00  0.00    +0.000 A 
ATOM      7  C   UNL     1     -23.391  10.598  -3.473  0.00  0.00    +0.000 A 
ENDROOT
BRANCH   7   8
ATOM      8  C   UNL     1     -23.215   9.380  -4.278  0.00  0.00    +0.000 C 
ATOM      9  C   UNL     1     -23.436   9.336  -5.585  0.00  0.00    +0.000 C 
BRANCH   9  10
ATOM     10  C   UNL     1     -24.459   8.462  -6.184  0.00  0.00    +0.000 A 
ATOM     11  C   UNL     1     -25.670   8.351  -5.514  0.00  0.00    +0.000 A 
ATOM     12  C   UNL     1     -26.869   8.249  -6.207  0.00  0.00    +0.000 A 
ATOM     13  O   UNL     1     -28.020   7.895  -5.500  0.00  0.00    +0.000 OA
ATOM     14  C   UNL     1     -26.916   8.439  -7.577  0.00  0.00    +0.000 A 
ATOM     15  C   UNL     1     -25.713   8.472  -8.266  0.00  0.00    +0.000 A 
ATOM     16  O   UNL     1     -25.720   8.842  -9.615  0.00  0.00    +0.000 OA
ATOM     17  C   UNL     1     -24.540   8.255  -7.557  0.00  0.00    +0.000 A 
ENDBRANCH   9  10
ENDBRANCH   7   8
BRANCH   1  18
ATOM     18  O   UNL     1     -22.062   9.830  -1.694  0.00  0.00    +0.000 OA
BRANCH  18  19
ATOM     19  C   UNL     1     -22.977   9.447  -0.699  0.00  0.00    +0.000 C 
BRANCH  19  26
ATOM     20  C   UNL     1     -24.586   6.807  -1.613  0.00  0.00    +0.000 C 
ATOM     21  O   UNL     1     -25.231   7.829  -2.000  0.00  0.00    +0.000 OA
ATOM     22  N   UNL     1     -23.331   6.893  -0.943  0.00  0.00    +0.000 N 
ATOM     23  C   UNL     1     -22.230   5.981  -1.296  0.00  0.00    +0.000 C 
ATOM     24  C   UNL     1     -21.102   6.604  -0.465  0.00  0.00    +0.000 C 
ATOM     25  O   UNL     1     -21.215   7.948  -0.786  0.00  0.00    +0.000 OA
ATOM     26  C   UNL     1     -22.035   8.562   0.376  0.00  0.00    +0.000 C 
ATOM     27  C   UNL     1     -23.166   7.318   0.417  0.00  0.00    +0.000 C 
BRANCH  20  28
ATOM     28  O   UNL     1     -25.074   5.604  -2.134  0.00  0.00    +0.000 OA
BRANCH  28  30
ATOM     29  C   UNL     1     -26.802   4.479  -1.949  0.00  0.00    +0.000 C 
ATOM     30  C   UNL     1     -25.933   4.752  -1.377  0.00  0.00    +0.000 C 
ATOM     31  C   UNL     1     -25.120   3.489  -1.120  0.00  0.00    +0.000 C 
ATOM     32  C   UNL     1     -26.325   5.370  -0.059  0.00  0.00    +0.000 C 
ENDBRANCH  28  30
ENDBRANCH  20  28
ENDBRANCH  19  26
ENDBRANCH  18  19
ENDBRANCH   1  18
TORSDOF 7
ENDMDL
MODEL 2
REMARK VINA RESULT:      -7.3     11.321     15.134
REMARK  Name = 
REMARK  7 active torsions:
REMARK  status: ('A' for Active; 'I' for Inactive)
REMARK    1  A    between atoms: C_2  and  O_5
REMARK    2  A    between atoms: O_5  and  C_6
REMARK    3  A    between atoms: C_12  and  C_13
REMARK    4  A    between atoms: C_13  and  O_14
REMARK    5  A    between atoms: O_14  and  C_15
REMARK    6  A    between atoms: C_21  and  C_22
REMARK    7  A    between atoms: C_23  and  C_24
REMARK                            x       y       z     vdW  Elec       q    Type
REMARK                         _______ _______ _______ _____ _____    ______ ____
ROOT
ATOM      1  C   UNL     1     -14.361  17.020   0.697  0.00  0.00    +0.000 A 
ATOM      2  C   UNL     1     -14.172  18.371   0.958  0.00  0.00    +0.000 A 
ATOM      3  C   UNL     1     -13.302  18.772   1.964  0.00  0.00    +0.000 A 
ATOM      4  O   UNL     1     -13.604  19.770   2.873  0.00  0.00    +0.000 OA
ATOM      5  C   UNL     1     -12.344  17.839   2.341  0.00  0.00    +0.000 A 
ATOM      6  C   UNL     1     -12.427  16.515   1.921  0.00  0.00    +0.000 A 
ATOM      7  C   UNL     1     -13.575  16.043   1.293  0.00  0.00    +0.000 A 
ENDROOT
BRANCH   7   8
ATOM      8  C   UNL     1     -14.241  14.802   1.715  0.00  0.00    +0.000 C 
ATOM      9  C   UNL     1     -13.734  13.980   2.625  0.00  0.00    +0.000 C 
BRANCH   9  10
ATOM     10  C   UNL     1     -13.379  12.583   2.317  0.00  0.00    +0.000 A 
ATOM     11  C   UNL     1     -12.213  12.086   2.886  0.00  0.00    +0.000 A 
ATOM     12  C   UNL     1     -12.131  10.771   3.324  0.00  0.00    +0.000 A 
ATOM     13  O   UNL     1     -10.876  10.255   3.656  0.00  0.00    +0.000 OA
ATOM     14  C   UNL     1     -13.257   9.968   3.378  0.00  0.00    +0.000 A 
ATOM     15  C   UNL     1     -14.404  10.422   2.745  0.00  0.00    +0.000 A 
ATOM     16  O   UNL     1     -15.601   9.723   2.937  0.00  0.00    +0.000 OA
ATOM     17  C   UNL     1     -14.344  11.619   2.046  0.00  0.00    +0.000 A 
ENDBRANCH   9  10
ENDBRANCH   7   8
BRANCH   1  18
ATOM     18  O   UNL     1     -15.186  16.565  -0.336  0.00  0.00    +0.000 OA
BRANCH  18  19
ATOM     19  C   UNL     1     -15.012  17.122  -1.614  0.00  0.00    +0.000 C 
BRANCH  19  26
ATOM     20  C   UNL     1     -13.504  18.639  -4.026  0.00  0.00    +0.000 C 
ATOM     21  O   UNL     1     -12.641  18.005  -3.344  0.00  0.00    +0.000 OA
ATOM     22  N   UNL     1     -14.900  18.589  -3.744  0.00  0.00    +0.000 N 
ATOM     23  C   UNL     1     -15.879  18.458  -4.837  0.00  0.00    +0.000 C 
ATOM     24  C   UNL     1     -17.157  18.255  -4.015  0.00  0.00    +0.000 C 
ATOM     25  O   UNL     1     -16.768  17.276  -3.113  0.00  0.00    +0.000 OA
ATOM     26  C   UNL     1     -16.395  18.053  -1.825  0.00  0.00    +0.000 C 
ATOM     27  C   UNL     1     -15.526  19.245  -2.633  0.00  0.00    +0.000 C 
BRANCH  20  28
ATOM     28  O   UNL     1     -13.000  19.163  -5.221  0.00  0.00    +0.000 OA
BRANCH  28  30
ATOM     29  C   UNL     1     -13.150  17.579  -6.544  0.00  0.00    +0.000 C 
ATOM     30  C   UNL     1     -12.442  18.325  -6.232  0.00  0.00    +0.000 C 
ATOM     31  C   UNL     1     -12.175  19.248  -7.415  0.00  0.00    +0.000 C 
ATOM     32  C   UNL     1     -11.147  17.691  -5.791  0.00  0.00    +0.000 C 
ENDBRANCH  28  30
ENDBRANCH  20  28
ENDBRANCH  19  26
ENDBRANCH  18  19
ENDBRANCH   1  18
TORSDOF 7
ENDMDL
MODEL 3
REMARK VINA RESULT:      -7.2     14.204     17.472
REMARK  Name = 
REMARK  7 active torsions:
REMARK  status: ('A' for Active; 'I' for Inactive)
REMARK    1  A    between atoms: C_2  and  O_5
REMARK    2  A    between atoms: O_5  and  C_6
REMARK    3  A    between atoms: C_12  and  C_13
REMARK    4  A    between atoms: C_13  and  O_14
REMARK    5  A    between atoms: O_14  and  C_15
REMARK    6  A    between atoms: C_21  and  C_22
REMARK    7  A    between atoms: C_23  and  C_24
REMARK                            x       y       z     vdW  Elec       q    Type
REMARK                         _______ _______ _______ _____ _____    ______ ____
ROOT
ATOM      1  C   UNL     1     -20.559  -4.649   8.898  0.00  0.00    +0.000 A 
ATOM      2  C   UNL     1     -19.456  -5.379   9.322  0.00  0.00    +0.000 A 
ATOM      3  C   UNL     1     -19.632  -6.575  10.007  0.00  0.00    +0.000 A 
ATOM      4  O   UNL     1     -18.906  -6.918  11.133  0.00  0.00    +0.000 OA
ATOM      5  C   UNL     1     -20.864  -7.194   9.832  0.00  0.00    +0.000 A 
ATOM      6  C   UNL     1     -21.924  -6.525   9.230  0.00  0.00    +0.000 A 
ATOM      7  C   UNL     1     -21.848  -5.160   8.979  0.00  0.00    +0.000 A 
ENDROOT
BRANCH   7   8
ATOM      8  C   UNL     1     -22.920  -4.233   9.371  0.00  0.00    +0.000 C 
ATOM      9  C   UNL     1     -24.202  -4.455   9.112  0.00  0.00    +0.000 C 
BRANCH   9  10
ATOM     10  C   UNL     1     -25.006  -3.554   8.269  0.00  0.00    +0.000 A 
ATOM     11  C   UNL     1     -26.162  -3.024   8.829  0.00  0.00    +0.000 A 
ATOM     12  C   UNL     1     -26.566  -1.725   8.550  0.00  0.00    +0.000 A 
ATOM     13  O   UNL     1     -27.849  -1.329   8.935  0.00  0.00    +0.000 OA
ATOM     14  C   UNL     1     -25.741  -0.858   7.856  0.00  0.00    +0.000 A 
ATOM     15  C   UNL     1     -24.626  -1.391   7.227  0.00  0.00    +0.000 A 
ATOM     16  O   UNL     1     -23.682  -0.518   6.677  0.00  0.00    +0.000 OA
ATOM     17  C   UNL     1     -24.433  -2.765   7.278  0.00  0.00    +0.000 A 
ENDBRANCH   9  10
ENDBRANCH   7   8
BRANCH   1  18
ATOM     18  O   UNL     1     -20.438  -3.466   8.164  0.00  0.00    +0.000 OA
BRANCH  18  19
ATOM     19  C   UNL     1     -19.260  -2.715   8.314  0.00  0.00    +0.000 C 
BRANCH  19  26
ATOM     20  C   UNL     1     -17.008  -1.162   6.608  0.00  0.00    +0.000 C 
ATOM     21  O   UNL     1     -16.737  -2.401   6.603  0.00  0.00    +0.000 OA
ATOM     22  N   UNL     1     -18.171  -0.627   7.236  0.00  0.00    +0.000 N 
ATOM     23  C   UNL     1     -18.969   0.415   6.569  0.00  0.00    +0.000 C 
ATOM     24  C   UNL     1     -20.160   0.483   7.532  0.00  0.00    +0.000 C 
ATOM     25  O   UNL     1     -20.486  -0.856   7.685  0.00  0.00    +0.000 OA
ATOM     26  C   UNL     1     -19.798  -1.280   9.006  0.00  0.00    +0.000 C 
ATOM     27  C   UNL     1     -18.344  -0.511   8.655  0.00  0.00    +0.000 C 
BRANCH  20  28
ATOM     28  O   UNL     1     -16.224  -0.411   5.726  0.00  0.00    +0.000 OA
BRANCH  28  30
ATOM     29  C   UNL     1     -14.666   0.031   7.015  0.00  0.00    +0.000 C 
ATOM     30  C   UNL     1     -15.202   0.469   6.193  0.00  0.00    +0.000 C 
ATOM     31  C   UNL     1     -14.236   0.619   5.024  0.00  0.00    +0.000 C 
ATOM     32  C   UNL     1     -15.749   1.824   6.565  0.00  0.00    +0.000 C 
ENDBRANCH  28  30
ENDBRANCH  20  28
ENDBRANCH  19  26
ENDBRANCH  18  19
ENDBRANCH   1  18
TORSDOF 7
ENDMDL
MODEL 4
REMARK VINA RESULT:      -7.2     11.492     15.614
REMARK  Name = 
REMARK  7 active torsions:
REMARK  status: ('A' for Active; 'I' for Inactive)
REMARK    1  A    between atoms: C_2  and  O_5
REMARK    2  A    between atoms: O_5  and  C_6
REMARK    3  A    between atoms: C_12  and  C_13
REMARK    4  A    between atoms: C_13  and  O_14
REMARK    5  A    between atoms: O_14  and  C_15
REMARK    6  A    between atoms: C_21  and  C_22
REMARK    7  A    between atoms: C_23  and  C_24
REMARK                            x       y       z     vdW  Elec       q    Type
REMARK                         _______ _______ _______ _____ _____    ______ ____
ROOT
ATOM      1  C   UNL     1     -13.200  17.608   0.214  0.00  0.00    +0.000 A 
ATOM      2  C   UNL     1     -13.141  18.912   0.688  0.00  0.00    +0.000 A 
ATOM      3  C   UNL     1     -12.907  19.156   2.036  0.00  0.00    +0.000 A 
ATOM      4  O   UNL     1     -13.610  20.092   2.771  0.00  0.00    +0.000 OA
ATOM      5  C   UNL     1     -12.302  18.120   2.738  0.00  0.00    +0.000 A 
ATOM      6  C   UNL     1     -12.187  16.849   2.186  0.00  0.00    +0.000 A 
ATOM      7  C   UNL     1     -12.857  16.525   1.011  0.00  0.00    +0.000 A 
ENDROOT
BRANCH   7   8
ATOM      8  C   UNL     1     -13.674  15.308   0.889  0.00  0.00    +0.000 C 
ATOM      9  C   UNL     1     -14.600  14.963   1.774  0.00  0.00    +0.000 C 
BRANCH   9  10
ATOM     10  C   UNL     1     -14.525  13.712   2.548  0.00  0.00    +0.000 A 
ATOM     11  C   UNL     1     -15.311  12.651   2.116  0.00  0.00    +0.000 A 
ATOM     12  C   UNL     1     -14.855  11.341   2.192  0.00  0.00    +0.000 A 
ATOM     13  O   UNL     1     -15.765  10.305   1.978  0.00  0.00    +0.000 OA
ATOM     14  C   UNL     1     -13.541  11.065   2.527  0.00  0.00    +0.000 A 
ATOM     15  C   UNL     1     -12.772  12.101   3.035  0.00  0.00    +0.000 A 
ATOM     16  O   UNL     1     -11.399  11.898   3.210  0.00  0.00    +0.000 OA
ATOM     17  C   UNL     1     -13.374  13.336   3.233  0.00  0.00    +0.000 A 
ENDBRANCH   9  10
ENDBRANCH   7   8
BRANCH   1  18
ATOM     18  O   UNL     1     -13.385  17.311  -1.139  0.00  0.00    +0.000 OA
BRANCH  18  19
ATOM     19  C   UNL     1     -13.107  18.317  -2.080  0.00  0.00    +0.000 C 
BRANCH  19  26
ATOM     20  C   UNL     1     -11.907  17.999  -5.055  0.00  0.00    +0.000 C 
ATOM     21  O   UNL     1     -10.942  18.074  -4.235  0.00  0.00    +0.000 OA
ATOM     22  N   UNL     1     -13.272  18.001  -4.645  0.00  0.00    +0.000 N 
ATOM     23  C   UNL     1     -14.239  17.075  -5.258  0.00  0.00    +0.000 C 
ATOM     24  C   UNL     1     -15.452  17.335  -4.358  0.00  0.00    +0.000 C 
ATOM     25  O   UNL     1     -14.895  17.250  -3.090  0.00  0.00    +0.000 OA
ATOM     26  C   UNL     1     -14.625  18.719  -2.680  0.00  0.00    +0.000 C 
ATOM     27  C   UNL     1     -13.972  19.158  -4.167  0.00  0.00    +0.000 C 
BRANCH  20  28
ATOM     28  O   UNL     1     -11.517  17.647  -6.351  0.00  0.00    +0.000 OA
BRANCH  28  30
ATOM     29  C   UNL     1     -10.148  18.751  -7.444  0.00  0.00    +0.000 C 
ATOM     30  C   UNL     1     -11.211  18.632  -7.337  0.00  0.00    +0.000 C 
ATOM     31  C   UNL     1     -11.760  18.076  -8.645  0.00  0.00    +0.000 C 
ATOM     32  C   UNL     1     -11.875  19.954  -7.041  0.00  0.00    +0.000 C 
ENDBRANCH  28  30
ENDBRANCH  20  28
ENDBRANCH  19  26
ENDBRANCH  18  19
ENDBRANCH   1  18
TORSDOF 7
ENDMDL
MODEL 5
REMARK VINA RESULT:      -6.9     14.461     17.899
REMARK  Name = 
REMARK  7 active torsions:
REMARK  status: ('A' for Active; 'I' for Inactive)
REMARK    1  A    between atoms: C_2  and  O_5
REMARK    2  A    between atoms: O_5  and  C_6
REMARK    3  A    between atoms: C_12  and  C_13
REMARK    4  A    between atoms: C_13  and  O_14
REMARK    5  A    between atoms: O_14  and  C_15
REMARK    6  A    between atoms: C_21  and  C_22
REMARK    7  A    between atoms: C_23  and  C_24
REMARK                            x       y       z     vdW  Elec       q    Type
REMARK                         _______ _______ _______ _____ _____    ______ ____
ROOT
ATOM      1  C   UNL     1     -20.388  -4.669   8.872  0.00  0.00    +0.000 A 
ATOM      2  C   UNL     1     -19.336  -5.452   9.329  0.00  0.00    +0.000 A 
ATOM      3  C   UNL     1     -19.591  -6.633  10.015  0.00  0.00    +0.000 A 
ATOM      4  O   UNL     1     -18.913  -7.004  11.162  0.00  0.00    +0.000 OA
ATOM      5  C   UNL     1     -20.849  -7.187   9.813  0.00  0.00    +0.000 A 
ATOM      6  C   UNL     1     -21.857  -6.469   9.181  0.00  0.00    +0.000 A 
ATOM      7  C   UNL     1     -21.703  -5.111   8.923  0.00  0.00    +0.000 A 
ENDROOT
BRANCH   7   8
ATOM      8  C   UNL     1     -22.735  -4.126   9.282  0.00  0.00    +0.000 C 
ATOM      9  C   UNL     1     -24.002  -4.451   9.506  0.00  0.00    +0.000 C 
BRANCH   9  10
ATOM     10  C   UNL     1     -25.109  -3.924   8.688  0.00  0.00    +0.000 A 
ATOM     11  C   UNL     1     -25.228  -4.411   7.393  0.00  0.00    +0.000 A 
ATOM     12  C   UNL     1     -26.473  -4.632   6.819  0.00  0.00    +0.000 A 
ATOM     13  O   UNL     1     -26.540  -4.882   5.447  0.00  0.00    +0.000 OA
ATOM     14  C   UNL     1     -27.628  -4.550   7.576  0.00  0.00    +0.000 A 
ATOM     15  C   UNL     1     -27.533  -3.993   8.842  0.00  0.00    +0.000 A 
ATOM     16  O   UNL     1     -28.641  -4.064   9.694  0.00  0.00    +0.000 OA
ATOM     17  C   UNL     1     -26.305  -3.496   9.255  0.00  0.00    +0.000 A 
ENDBRANCH   9  10
ENDBRANCH   7   8
BRANCH   1  18
ATOM     18  O   UNL     1     -20.187  -3.499   8.135  0.00  0.00    +0.000 OA
BRANCH  18  19
ATOM     19  C   UNL     1     -19.052  -2.723   8.426  0.00  0.00    +0.000 C 
BRANCH  19  26
ATOM     20  C   UNL     1     -16.973  -1.158   6.523  0.00  0.00    +0.000 C 
ATOM     21  O   UNL     1     -16.594  -2.364   6.631  0.00  0.00    +0.000 OA
ATOM     22  N   UNL     1     -18.168  -0.666   7.126  0.00  0.00    +0.000 N 
ATOM     23  C   UNL     1     -19.065   0.234   6.382  0.00  0.00    +0.000 C 
ATOM     24  C   UNL     1     -20.241   0.294   7.363  0.00  0.00    +0.000 C 
ATOM     25  O   UNL     1     -20.447  -1.046   7.652  0.00  0.00    +0.000 OA
ATOM     26  C   UNL     1     -19.702  -1.278   8.990  0.00  0.00    +0.000 C 
ATOM     27  C   UNL     1     -18.327  -0.426   8.530  0.00  0.00    +0.000 C 
BRANCH  20  28
ATOM     28  O   UNL     1     -16.271  -0.433   5.554  0.00  0.00    +0.000 OA
BRANCH  28  30
ATOM     29  C   UNL     1     -15.810   1.541   5.974  0.00  0.00    +0.000 C 
ATOM     30  C   UNL     1     -15.332   0.581   5.908  0.00  0.00    +0.000 C 
ATOM     31  C   UNL     1     -14.837   0.202   7.299  0.00  0.00    +0.000 C 
ATOM     32  C   UNL     1     -14.162   0.624   4.957  0.00  0.00    +0.000 C 
ENDBRANCH  28  30
ENDBRANCH  20  28
ENDBRANCH  19  26
ENDBRANCH  18  19
ENDBRANCH   1  18
TORSDOF 7
ENDMDL
MODEL 6
REMARK VINA RESULT:      -6.8      3.010      7.949
REMARK  Name = 
REMARK  7 active torsions:
REMARK  status: ('A' for Active; 'I' for Inactive)
REMARK    1  A    between atoms: C_2  and  O_5
REMARK    2  A    between atoms: O_5  and  C_6
REMARK    3  A    between atoms: C_12  and  C_13
REMARK    4  A    between atoms: C_13  and  O_14
REMARK    5  A    between atoms: O_14  and  C_15
REMARK    6  A    between atoms: C_21  and  C_22
REMARK    7  A    between atoms: C_23  and  C_24
REMARK                            x       y       z     vdW  Elec       q    Type
REMARK                         _______ _______ _______ _____ _____    ______ ____
ROOT
ATOM      1  C   UNL     1     -24.404  10.531  -5.242  0.00  0.00    +0.000 A 
ATOM      2  C   UNL     1     -24.608  11.897  -5.099  0.00  0.00    +0.000 A 
ATOM      3  C   UNL     1     -23.892  12.615  -4.149  0.00  0.00    +0.000 A 
ATOM      4  O   UNL     1     -24.468  13.560  -3.320  0.00  0.00    +0.000 OA
ATOM      5  C   UNL     1     -22.708  12.029  -3.718  0.00  0.00    +0.000 A 
ATOM      6  C   UNL     1     -22.410  10.706  -4.023  0.00  0.00    +0.000 A 
ATOM      7  C   UNL     1     -23.373   9.874  -4.584  0.00  0.00    +0.000 A 
ENDROOT
BRANCH   7   8
ATOM      8  C   UNL     1     -23.658   8.536  -4.045  0.00  0.00    +0.000 C 
ATOM      9  C   UNL     1     -24.505   8.320  -3.047  0.00  0.00    +0.000 C 
BRANCH   9  10
ATOM     10  C   UNL     1     -24.084   7.725  -1.767  0.00  0.00    +0.000 A 
ATOM     11  C   UNL     1     -23.521   6.455  -1.813  0.00  0.00    +0.000 A 
ATOM     12  C   UNL     1     -22.476   6.101  -0.970  0.00  0.00    +0.000 A 
ATOM     13  O   UNL     1     -22.116   4.754  -0.884  0.00  0.00    +0.000 OA
ATOM     14  C   UNL     1     -21.841   7.050  -0.188  0.00  0.00    +0.000 A 
ATOM     15  C   UNL     1     -22.438   8.296  -0.073  0.00  0.00    +0.000 A 
ATOM     16  O   UNL     1     -21.731   9.325   0.558  0.00  0.00    +0.000 OA
ATOM     17  C   UNL     1     -23.661   8.503  -0.695  0.00  0.00    +0.000 A 
ENDBRANCH   9  10
ENDBRANCH   7   8
BRANCH   1  18
ATOM     18  O   UNL     1     -25.062   9.773  -6.214  0.00  0.00    +0.000 OA
BRANCH  18  19
ATOM     19  C   UNL     1     -26.438   9.987  -6.398  0.00  0.00    +0.000 C 
BRANCH  19  26
ATOM     20  C   UNL     1     -27.082  10.824  -9.444  0.00  0.00    +0.000 C 
ATOM     21  O   UNL     1     -26.867  11.878  -8.771  0.00  0.00    +0.000 OA
ATOM     22  N   UNL     1     -26.978   9.516  -8.886  0.00  0.00    +0.000 N 
ATOM     23  C   UNL     1     -26.323   8.433  -9.638  0.00  0.00    +0.000 C 
ATOM     24  C   UNL     1     -26.299   7.347  -8.556  0.00  0.00    +0.000 C 
ATOM     25  O   UNL     1     -25.795   8.036  -7.464  0.00  0.00    +0.000 OA
ATOM     26  C   UNL     1     -27.045   8.439  -6.642  0.00  0.00    +0.000 C 
ATOM     27  C   UNL     1     -27.930   8.945  -7.979  0.00  0.00    +0.000 C 
BRANCH  20  28
ATOM     28  O   UNL     1     -27.164  11.045 -10.823  0.00  0.00    +0.000 OA
BRANCH  28  30
ATOM     29  C   UNL     1     -28.384  11.842 -12.293  0.00  0.00    +0.000 C 
ATOM     30  C   UNL     1     -28.419  11.118 -11.499  0.00  0.00    +0.000 C 
ATOM     31  C   UNL     1     -28.621   9.742 -12.121  0.00  0.00    +0.000 C 
ATOM     32  C   UNL     1     -29.556  11.409 -10.552  0.00  0.00    +0.000 C 
ENDBRANCH  28  30
ENDBRANCH  20  28
ENDBRANCH  19  26
ENDBRANCH  18  19
ENDBRANCH   1  18
TORSDOF 7
ENDMDL
MODEL 7
REMARK VINA RESULT:      -6.7      2.903      5.034
REMARK  Name = 
REMARK  7 active torsions:
REMARK  status: ('A' for Active; 'I' for Inactive)
REMARK    1  A    between atoms: C_2  and  O_5
REMARK    2  A    between atoms: O_5  and  C_6
REMARK    3  A    between atoms: C_12  and  C_13
REMARK    4  A    between atoms: C_13  and  O_14
REMARK    5  A    between atoms: O_14  and  C_15
REMARK    6  A    between atoms: C_21  and  C_22
REMARK    7  A    between atoms: C_23  and  C_24
REMARK                            x       y       z     vdW  Elec       q    Type
REMARK                         _______ _______ _______ _____ _____    ______ ____
ROOT
ATOM      1  C   UNL     1     -25.870   9.658  -7.009  0.00  0.00    +0.000 A 
ATOM      2  C   UNL     1     -26.443  10.908  -6.814  0.00  0.00    +0.000 A 
ATOM      3  C   UNL     1     -27.789  11.110  -7.092  0.00  0.00    +0.000 A 
ATOM      4  O   UNL     1     -28.265  12.219  -7.767  0.00  0.00    +0.000 OA
ATOM      5  C   UNL     1     -28.578   9.967  -7.113  0.00  0.00    +0.000 A 
ATOM      6  C   UNL     1     -28.006   8.699  -7.116  0.00  0.00    +0.000 A 
ATOM      7  C   UNL     1     -26.638   8.541  -7.310  0.00  0.00    +0.000 A 
ENDROOT
BRANCH   7   8
ATOM      8  C   UNL     1     -26.094   7.589  -8.290  0.00  0.00    +0.000 C 
ATOM      9  C   UNL     1     -26.083   7.819  -9.597  0.00  0.00    +0.000 C 
BRANCH   9  10
ATOM     10  C   UNL     1     -26.800   6.961 -10.556  0.00  0.00    +0.000 A 
ATOM     11  C   UNL     1     -27.165   5.692 -10.123  0.00  0.00    +0.000 A 
ATOM     12  C   UNL     1     -28.366   5.117 -10.514  0.00  0.00    +0.000 A 
ATOM     13  O   UNL     1     -28.571   3.760 -10.256  0.00  0.00    +0.000 OA
ATOM     14  C   UNL     1     -29.319   5.854 -11.195  0.00  0.00    +0.000 A 
ATOM     15  C   UNL     1     -28.940   7.089 -11.701  0.00  0.00    +0.000 A 
ATOM     16  O   UNL     1     -29.924   7.930 -12.231  0.00  0.00    +0.000 OA
ATOM     17  C   UNL     1     -27.620   7.488 -11.548  0.00  0.00    +0.000 A 
ENDBRANCH   9  10
ENDBRANCH   7   8
BRANCH   1  18
ATOM     18  O   UNL     1     -24.534   9.390  -6.699  0.00  0.00    +0.000 OA
BRANCH  18  19
ATOM     19  C   UNL     1     -24.231   8.974  -5.392  0.00  0.00    +0.000 C 
BRANCH  19  26
ATOM     20  C   UNL     1     -23.593   7.240  -2.750  0.00  0.00    +0.000 C 
ATOM     21  O   UNL     1     -23.922   6.448  -3.685  0.00  0.00    +0.000 OA
ATOM     22  N   UNL     1     -23.486   8.650  -2.933  0.00  0.00    +0.000 N 
ATOM     23  C   UNL     1     -22.358   9.396  -2.352  0.00  0.00    +0.000 C 
ATOM     24  C   UNL     1     -22.602  10.769  -2.989  0.00  0.00    +0.000 C 
ATOM     25  O   UNL     1     -22.795  10.440  -4.322  0.00  0.00    +0.000 OA
ATOM     26  C   UNL     1     -24.334  10.393  -4.497  0.00  0.00    +0.000 C 
ATOM     27  C   UNL     1     -24.606   9.534  -3.077  0.00  0.00    +0.000 C 
BRANCH  20  28
ATOM     28  O   UNL     1     -23.089   6.593  -1.616  0.00  0.00    +0.000 OA
BRANCH  28  30
ATOM     29  C   UNL     1     -23.838   5.237  -0.244  0.00  0.00    +0.000 C 
ATOM     30  C   UNL     1     -23.920   6.278  -0.500  0.00  0.00    +0.000 C 
ATOM     31  C   UNL     1     -23.364   7.095   0.659  0.00  0.00    +0.000 C 
ATOM     32  C   UNL     1     -25.358   6.664  -0.738  0.00  0.00    +0.000 C 
ENDBRANCH  28  30
ENDBRANCH  20  28
ENDBRANCH  19  26
ENDBRANCH  18  19
ENDBRANCH   1  18
TORSDOF 7
ENDMDL
MODEL 8
REMARK VINA RESULT:      -6.6     15.954     20.256
REMARK  Name = 
REMARK  7 active torsions:
REMARK  status: ('A' for Active; 'I' for Inactive)
REMARK    1  A    between atoms: C_2  and  O_5
REMARK    2  A    between atoms: O_5  and  C_6
REMARK    3  A    between atoms: C_12  and  C_13
REMARK    4  A    between atoms: C_13  and  O_14
REMARK    5  A    between atoms: O_14  and  C_15
REMARK    6  A    between atoms: C_21  and  C_22
REMARK    7  A    between atoms: C_23  and  C_24
REMARK                            x       y       z     vdW  Elec       q    Type
REMARK                         _______ _______ _______ _____ _____    ______ ____
ROOT
ATOM      1  C   UNL     1     -35.701  -4.946  -7.256  0.00  0.00    +0.000 A 
ATOM      2  C   UNL     1     -36.819  -4.183  -7.567  0.00  0.00    +0.000 A 
ATOM      3  C   UNL     1     -37.074  -3.004  -6.878  0.00  0.00    +0.000 A 
ATOM      4  O   UNL     1     -38.329  -2.652  -6.417  0.00  0.00    +0.000 OA
ATOM      5  C   UNL     1     -35.979  -2.428  -6.245  0.00  0.00    +0.000 A 
ATOM      6  C   UNL     1     -34.785  -3.125  -6.099  0.00  0.00    +0.000 A 
ATOM      7  C   UNL     1     -34.719  -4.483  -6.390  0.00  0.00    +0.000 A 
ENDROOT
BRANCH   7   8
ATOM      8  C   UNL     1     -34.127  -5.454  -5.457  0.00  0.00    +0.000 C 
ATOM      9  C   UNL     1     -33.994  -5.224  -4.158  0.00  0.00    +0.000 C 
BRANCH   9  10
ATOM     10  C   UNL     1     -32.680  -5.190  -3.491  0.00  0.00    +0.000 A 
ATOM     11  C   UNL     1     -32.196  -6.389  -2.983  0.00  0.00    +0.000 A 
ATOM     12  C   UNL     1     -30.843  -6.698  -3.036  0.00  0.00    +0.000 A 
ATOM     13  O   UNL     1     -30.379  -7.790  -2.299  0.00  0.00    +0.000 OA
ATOM     14  C   UNL     1     -29.962  -5.911  -3.757  0.00  0.00    +0.000 A 
ATOM     15  C   UNL     1     -30.413  -4.677  -4.201  0.00  0.00    +0.000 A 
ATOM     16  O   UNL     1     -29.611  -3.944  -5.082  0.00  0.00    +0.000 OA
ATOM     17  C   UNL     1     -31.695  -4.276  -3.850  0.00  0.00    +0.000 A 
ENDBRANCH   9  10
ENDBRANCH   7   8
BRANCH   1  18
ATOM     18  O   UNL     1     -35.373  -6.113  -7.951  0.00  0.00    +0.000 OA
BRANCH  18  19
ATOM     19  C   UNL     1     -36.288  -6.594  -8.903  0.00  0.00    +0.000 C 
BRANCH  19  26
ATOM     20  C   UNL     1     -35.835  -8.330 -11.581  0.00  0.00    +0.000 C 
ATOM     21  O   UNL     1     -35.680  -7.103 -11.863  0.00  0.00    +0.000 OA
ATOM     22  N   UNL     1     -36.104  -8.791 -10.259  0.00  0.00    +0.000 N 
ATOM     23  C   UNL     1     -35.420  -9.983  -9.729  0.00  0.00    +0.000 C 
ATOM     24  C   UNL     1     -35.892  -9.924  -8.272  0.00  0.00    +0.000 C 
ATOM     25  O   UNL     1     -35.650  -8.600  -7.942  0.00  0.00    +0.000 OA
ATOM     26  C   UNL     1     -37.016  -7.893  -8.123  0.00  0.00    +0.000 C 
ATOM     27  C   UNL     1     -37.363  -8.640  -9.589  0.00  0.00    +0.000 C 
BRANCH  20  28
ATOM     28  O   UNL     1     -35.456  -9.196 -12.612  0.00  0.00    +0.000 OA
BRANCH  28  30
ATOM     29  C   UNL     1     -37.416  -9.567 -13.163  0.00  0.00    +0.000 C 
ATOM     30  C   UNL     1     -36.416  -9.783 -13.490  0.00  0.00    +0.000 C 
ATOM     31  C   UNL     1     -36.199  -9.103 -14.836  0.00  0.00    +0.000 C 
ATOM     32  C   UNL     1     -36.207 -11.269 -13.643  0.00  0.00    +0.000 C 
ENDBRANCH  28  30
ENDBRANCH  20  28
ENDBRANCH  19  26
ENDBRANCH  18  19
ENDBRANCH   1  18
TORSDOF 7
ENDMDL
MODEL 9
REMARK VINA RESULT:      -6.6     15.023     18.785
REMARK  Name = 
REMARK  7 active torsions:
REMARK  status: ('A' for Active; 'I' for Inactive)
REMARK    1  A    between atoms: C_2  and  O_5
REMARK    2  A    between atoms: O_5  and  C_6
REMARK    3  A    between atoms: C_12  and  C_13
REMARK    4  A    between atoms: C_13  and  O_14
REMARK    5  A    between atoms: O_14  and  C_15
REMARK    6  A    between atoms: C_21  and  C_22
REMARK    7  A    between atoms: C_23  and  C_24
REMARK                            x       y       z     vdW  Elec       q    Type
REMARK                         _______ _______ _______ _____ _____    ______ ____
ROOT
ATOM      1  C   UNL     1     -36.029  -4.676  -5.511  0.00  0.00    +0.000 A 
ATOM      2  C   UNL     1     -37.003  -4.458  -4.546  0.00  0.00    +0.000 A 
ATOM      3  C   UNL     1     -37.686  -5.531  -3.987  0.00  0.00    +0.000 A 
ATOM      4  O   UNL     1     -39.053  -5.537  -3.784  0.00  0.00    +0.000 OA
ATOM      5  C   UNL     1     -37.052  -6.764  -4.086  0.00  0.00    +0.000 A 
ATOM      6  C   UNL     1     -35.949  -6.941  -4.914  0.00  0.00    +0.000 A 
ATOM      7  C   UNL     1     -35.580  -5.953  -5.820  0.00  0.00    +0.000 A 
ENDROOT
BRANCH   7   8
ATOM      8  C   UNL     1     -35.311  -6.252  -7.235  0.00  0.00    +0.000 C 
ATOM      9  C   UNL     1     -36.254  -6.261  -8.167  0.00  0.00    +0.000 C 
BRANCH   9  10
ATOM     10  C   UNL     1     -36.589  -7.469  -8.941  0.00  0.00    +0.000 A 
ATOM     11  C   UNL     1     -36.033  -7.584 -10.209  0.00  0.00    +0.000 A 
ATOM     12  C   UNL     1     -35.620  -8.814 -10.704  0.00  0.00    +0.000 A 
ATOM     13  O   UNL     1     -35.301  -8.914 -12.060  0.00  0.00    +0.000 OA
ATOM     14  C   UNL     1     -35.578  -9.931  -9.888  0.00  0.00    +0.000 A 
ATOM     15  C   UNL     1     -36.200  -9.851  -8.651  0.00  0.00    +0.000 A 
ATOM     16  O   UNL     1     -36.019 -10.894  -7.737  0.00  0.00    +0.000 OA
ATOM     17  C   UNL     1     -36.876  -8.683  -8.326  0.00  0.00    +0.000 A 
ENDBRANCH   9  10
ENDBRANCH   7   8
BRANCH   1  18
ATOM     18  O   UNL     1     -35.281  -3.636  -6.069  0.00  0.00    +0.000 OA
BRANCH  18  19
ATOM     19  C   UNL     1     -34.434  -2.903  -5.220  0.00  0.00    +0.000 C 
BRANCH  19  26
ATOM     20  C   UNL     1     -32.483  -5.076  -3.853  0.00  0.00    +0.000 C 
ATOM     21  O   UNL     1     -33.503  -4.924  -3.113  0.00  0.00    +0.000 OA
ATOM     22  N   UNL     1     -32.327  -4.404  -5.101  0.00  0.00    +0.000 N 
ATOM     23  C   UNL     1     -31.810  -5.122  -6.277  0.00  0.00    +0.000 C 
ATOM     24  C   UNL     1     -32.025  -4.049  -7.350  0.00  0.00    +0.000 C 
ATOM     25  O   UNL     1     -33.334  -3.658  -7.112  0.00  0.00    +0.000 OA
ATOM     26  C   UNL     1     -33.212  -2.378  -6.248  0.00  0.00    +0.000 C 
ATOM     27  C   UNL     1     -32.025  -3.009  -5.237  0.00  0.00    +0.000 C 
BRANCH  20  28
ATOM     28  O   UNL     1     -31.667  -6.146  -3.473  0.00  0.00    +0.000 OA
BRANCH  28  30
ATOM     29  C   UNL     1     -30.670  -5.490  -1.782  0.00  0.00    +0.000 C 
ATOM     30  C   UNL     1     -30.464  -5.947  -2.732  0.00  0.00    +0.000 C 
ATOM     31  C   UNL     1     -29.914  -7.345  -2.476  0.00  0.00    +0.000 C 
ATOM     32  C   UNL     1     -29.448  -5.146  -3.508  0.00  0.00    +0.000 C 
ENDBRANCH  28  30
ENDBRANCH  20  28
ENDBRANCH  19  26
ENDBRANCH  18  19
ENDBRANCH   1  18
TORSDOF 7
ENDMDL
MODEL 10
REMARK VINA RESULT:      -6.5     13.138     17.512
REMARK  Name = 
REMARK  7 active torsions:
REMARK  status: ('A' for Active; 'I' for Inactive)
REMARK    1  A    between atoms: C_2  and  O_5
REMARK    2  A    between atoms: O_5  and  C_6
REMARK    3  A    between atoms: C_12  and  C_13
REMARK    4  A    between atoms: C_13  and  O_14
REMARK    5  A    between atoms: O_14  and  C_15
REMARK    6  A    between atoms: C_21  and  C_22
REMARK    7  A    between atoms: C_23  and  C_24
REMARK                            x       y       z     vdW  Elec       q    Type
REMARK                         _______ _______ _______ _____ _____    ______ ____
ROOT
ATOM      1  C   UNL     1     -21.632  -4.911   9.685  0.00  0.00    +0.000 A 
ATOM      2  C   UNL     1     -21.420  -6.211   9.246  0.00  0.00    +0.000 A 
ATOM      3  C   UNL     1     -20.139  -6.639   8.920  0.00  0.00    +0.000 A 
ATOM      4  O   UNL     1     -19.853  -7.386   7.792  0.00  0.00    +0.000 OA
ATOM      5  C   UNL     1     -19.099  -5.903   9.475  0.00  0.00    +0.000 A 
ATOM      6  C   UNL     1     -19.335  -4.678  10.090  0.00  0.00    +0.000 A 
ATOM      7  C   UNL     1     -20.576  -4.060   9.983  0.00  0.00    +0.000 A 
ENDROOT
BRANCH   7   8
ATOM      8  C   UNL     1     -20.713  -2.648   9.593  0.00  0.00    +0.000 C 
ATOM      9  C   UNL     1     -21.024  -2.262   8.363  0.00  0.00    +0.000 C 
BRANCH   9  10
ATOM     10  C   UNL     1     -20.123  -1.432   7.544  0.00  0.00    +0.000 A 
ATOM     11  C   UNL     1     -19.877  -0.138   7.986  0.00  0.00    +0.000 A 
ATOM     12  C   UNL     1     -18.625   0.445   7.841  0.00  0.00    +0.000 A 
ATOM     13  O   UNL     1     -18.497   1.817   8.073  0.00  0.00    +0.000 OA
ATOM     14  C   UNL     1     -17.538  -0.301   7.421  0.00  0.00    +0.000 A 
ATOM     15  C   UNL     1     -17.783  -1.564   6.904  0.00  0.00    +0.000 A 
ATOM     16  O   UNL     1     -16.697  -2.406   6.643  0.00  0.00    +0.000 OA
ATOM     17  C   UNL     1     -19.099  -1.985   6.783  0.00  0.00    +0.000 A 
ENDBRANCH   9  10
ENDBRANCH   7   8
BRANCH   1  18
ATOM     18  O   UNL     1     -22.891  -4.447  10.072  0.00  0.00    +0.000 OA
BRANCH  18  19
ATOM     19  C   UNL     1     -23.870  -4.288   9.076  0.00  0.00    +0.000 C 
BRANCH  19  26
ATOM     20  C   UNL     1     -25.390  -2.974   6.555  0.00  0.00    +0.000 C 
ATOM     21  O   UNL     1     -24.149  -2.737   6.448  0.00  0.00    +0.000 OA
ATOM     22  N   UNL     1     -25.940  -3.753   7.615  0.00  0.00    +0.000 N 
ATOM     23  C   UNL     1     -26.985  -4.755   7.342  0.00  0.00    +0.000 C 
ATOM     24  C   UNL     1     -27.071  -5.419   8.721  0.00  0.00    +0.000 C 
ATOM     25  O   UNL     1     -25.736  -5.656   9.013  0.00  0.00    +0.000 OA
ATOM     26  C   UNL     1     -25.315  -4.470   9.917  0.00  0.00    +0.000 C 
ATOM     27  C   UNL     1     -26.068  -3.302   8.970  0.00  0.00    +0.000 C 
BRANCH  20  28
ATOM     28  O   UNL     1     -26.127  -2.637   5.415  0.00  0.00    +0.000 OA
BRANCH  28  30
ATOM     29  C   UNL     1     -27.918  -1.608   5.548  0.00  0.00    +0.000 C 
ATOM     30  C   UNL     1     -26.879  -1.427   5.336  0.00  0.00    +0.000 C 
ATOM     31  C   UNL     1     -26.320  -0.534   6.436  0.00  0.00    +0.000 C 
ATOM     32  C   UNL     1     -26.711  -0.742   4.003  0.00  0.00    +0.000 C 
ENDBRANCH  28  30
ENDBRANCH  20  28
ENDBRANCH  19  26
ENDBRANCH  18  19
ENDBRANCH   1  18
TORSDOF 7
ENDMDL
