MODEL 1
REMARK VINA RESULT:      -7.1      0.000      0.000
REMARK  Name = 
REMARK  12 active torsions:
REMARK  status: ('A' for Active; 'I' for Inactive)
REMARK    1  A    between atoms: C_2  and  C_3
REMARK    2  A    between atoms: C_3  and  O_5
REMARK    3  A    between atoms: O_5  and  C_6
REMARK    4  A    between atoms: C_6  and  C_7
REMARK    5  A    between atoms: C_7  and  C_8
REMARK    6  A    between atoms: C_7  and  O_15
REMARK    7  A    between atoms: C_8  and  O_9
REMARK    8  A    between atoms: O_9  and  C_10
REMARK    9  A    between atoms: C_10  and  C_12
REMARK   10  A    between atoms: O_15  and  C_16
REMARK   11  A    between atoms: C_22  and  C_23
REMARK   12  A    between atoms: C_24  and  C_25
REMARK                            x       y       z     vdW  Elec       q    Type
REMARK                         _______ _______ _______ _____ _____    ______ ____
ROOT
ATOM      1  C   UNL     1     -14.361  17.479   0.972  0.00  0.00    +0.000 A 
ATOM      2  C   UNL     1     -14.252  18.735   1.523  0.00  0.00    +0.000 A 
ATOM      3  C   UNL     1     -13.286  19.103   2.433  0.00  0.00    +0.000 A 
ATOM      4  O   UNL     1     -13.449  20.224   3.256  0.00  0.00    +0.000 OA
ATOM      5  C   UNL     1     -12.204  18.248   2.614  0.00  0.00    +0.000 A 
ATOM      6  C   UNL     1     -12.479  16.910   2.362  0.00  0.00    +0.000 A 
ATOM      7  C   UNL     1     -13.608  16.519   1.645  0.00  0.00    +0.000 A 
ENDROOT
BRANCH   7   8
ATOM      8  C   UNL     1     -13.887  15.104   1.356  0.00  0.00    +0.000 C 
ATOM      9  C   UNL     1     -14.641  14.366   2.136  0.00  0.00    +0.000 C 
BRANCH   9  10
ATOM     10  C   UNL     1     -14.267  13.044   2.653  0.00  0.00    +0.000 A 
ATOM     11  C   UNL     1     -14.915  11.904   2.218  0.00  0.00    +0.000 A 
ATOM     12  C   UNL     1     -14.432  10.691   2.672  0.00  0.00    +0.000 A 
ATOM     13  O   UNL     1     -15.268   9.578   2.716  0.00  0.00    +0.000 OA
ATOM     14  C   UNL     1     -13.243  10.616   3.350  0.00  0.00    +0.000 A 
ATOM     15  C   UNL     1     -12.390  11.710   3.303  0.00  0.00    +0.000 A 
ATOM     16  O   UNL     1     -11.032  11.563   3.599  0.00  0.00    +0.000 OA
ATOM     17  C   UNL     1     -12.954  12.939   3.104  0.00  0.00    +0.000 A 
ENDBRANCH   9  10
ENDBRANCH   7   8
BRANCH   1  18
ATOM     18  O   UNL     1     -14.757  17.144  -0.273  0.00  0.00    +0.000 OA
BRANCH  18  19
ATOM     19  C   UNL     1     -14.487  18.133  -1.452  0.00  0.00    +0.000 C 
BRANCH  19  20
ATOM     20  C   UNL     1     -12.898  17.635  -1.674  0.00  0.00    +0.000 C 
BRANCH  20  21
ATOM     21  O   UNL     1     -12.591  18.430  -2.806  0.00  0.00    +0.000 OA
BRANCH  21  22
ATOM     22  C   UNL     1     -11.449  19.181  -2.930  0.00  0.00    +0.000 C 
ATOM     23  O   UNL     1     -10.970  19.731  -1.921  0.00  0.00    +0.000 OA
BRANCH  22  25
ATOM     24  C   UNL     1     -10.465  18.551  -4.930  0.00  0.00    +0.000 C 
ATOM     25  C   UNL     1     -10.863  19.440  -4.219  0.00  0.00    +0.000 C 
ENDBRANCH  22  25
ENDBRANCH  21  22
ENDBRANCH  20  21
ENDBRANCH  19  20
BRANCH  19  26
ATOM     26  C   UNL     1     -15.050  17.028  -2.582  0.00  0.00    +0.000 C 
BRANCH  26  27
ATOM     27  O   UNL     1     -15.936  17.825  -3.372  0.00  0.00    +0.000 OA
BRANCH  27  28
ATOM     28  C   UNL     1     -15.791  17.869  -4.763  0.00  0.00    +0.000 C 
ATOM     29  O   UNL     1     -16.879  17.973  -5.407  0.00  0.00    +0.000 OA
BRANCH  28  30
ATOM     30  C   UNL     1     -14.558  18.302  -5.413  0.00  0.00    +0.000 C 
ATOM     31  C   UNL     1     -14.371  19.568  -5.718  0.00  0.00    +0.000 C 
ATOM     32  C   UNL     1     -13.720  17.301  -6.120  0.00  0.00    +0.000 C 
ENDBRANCH  28  30
ENDBRANCH  27  28
ENDBRANCH  26  27
ENDBRANCH  19  26
ENDBRANCH  18  19
ENDBRANCH   1  18
TORSDOF 12
ENDMDL
MODEL 2
REMARK VINA RESULT:      -7.0     18.315     24.771
REMARK  Name = 
REMARK  12 active torsions:
REMARK  status: ('A' for Active; 'I' for Inactive)
REMARK    1  A    between atoms: C_2  and  C_3
REMARK    2  A    between atoms: C_3  and  O_5
REMARK    3  A    between atoms: O_5  and  C_6
REMARK    4  A    between atoms: C_6  and  C_7
REMARK    5  A    between atoms: C_7  and  C_8
REMARK    6  A    between atoms: C_7  and  O_15
REMARK    7  A    between atoms: C_8  and  O_9
REMARK    8  A    between atoms: O_9  and  C_10
REMARK    9  A    between atoms: C_10  and  C_12
REMARK   10  A    between atoms: O_15  and  C_16
REMARK   11  A    between atoms: C_22  and  C_23
REMARK   12  A    between atoms: C_24  and  C_25
REMARK                            x       y       z     vdW  Elec       q    Type
REMARK                         _______ _______ _______ _____ _____    ______ ____
ROOT
ATOM      1  C   UNL     1     -18.232  -6.911   6.158  0.00  0.00    +0.000 A 
ATOM      2  C   UNL     1     -18.239  -7.807   5.113  0.00  0.00    +0.000 A 
ATOM      3  C   UNL     1     -17.481  -7.672   3.971  0.00  0.00    +0.000 A 
ATOM      4  O   UNL     1     -17.809  -8.355   2.794  0.00  0.00    +0.000 OA
ATOM      5  C   UNL     1     -16.459  -6.728   3.976  0.00  0.00    +0.000 A 
ATOM      6  C   UNL     1     -16.677  -5.648   4.823  0.00  0.00    +0.000 A 
ATOM      7  C   UNL     1     -17.634  -5.696   5.834  0.00  0.00    +0.000 A 
ENDROOT
BRANCH   7   8
ATOM      8  C   UNL     1     -17.849  -4.563   6.747  0.00  0.00    +0.000 C 
ATOM      9  C   UNL     1     -18.301  -3.404   6.330  0.00  0.00    +0.000 C 
BRANCH   9  10
ATOM     10  C   UNL     1     -17.685  -2.107   6.637  0.00  0.00    +0.000 A 
ATOM     11  C   UNL     1     -16.421  -1.796   6.177  0.00  0.00    +0.000 A 
ATOM     12  C   UNL     1     -15.956  -0.516   6.419  0.00  0.00    +0.000 A 
ATOM     13  O   UNL     1     -14.588  -0.265   6.459  0.00  0.00    +0.000 OA
ATOM     14  C   UNL     1     -16.793   0.455   6.906  0.00  0.00    +0.000 A 
ATOM     15  C   UNL     1     -18.161   0.228   6.859  0.00  0.00    +0.000 A 
ATOM     16  O   UNL     1     -19.059   1.295   6.937  0.00  0.00    +0.000 OA
ATOM     17  C   UNL     1     -18.584  -1.072   6.880  0.00  0.00    +0.000 A 
ENDBRANCH   9  10
ENDBRANCH   7   8
BRANCH   1  18
ATOM     18  O   UNL     1     -18.364  -7.166   7.476  0.00  0.00    +0.000 OA
BRANCH  18  19
ATOM     19  C   UNL     1     -19.764  -7.576   8.039  0.00  0.00    +0.000 C 
BRANCH  19  20
ATOM     20  C   UNL     1     -19.344  -9.187   8.262  0.00  0.00    +0.000 C 
BRANCH  20  21
ATOM     21  O   UNL     1     -18.198  -8.988   9.072  0.00  0.00    +0.000 OA
BRANCH  21  22
ATOM     22  C   UNL     1     -17.163  -9.883   9.171  0.00  0.00    +0.000 C 
ATOM     23  O   UNL     1     -16.498  -9.932  10.223  0.00  0.00    +0.000 OA
BRANCH  22  25
ATOM     24  C   UNL     1     -16.745 -11.888   8.088  0.00  0.00    +0.000 C 
ATOM     25  C   UNL     1     -16.758 -10.682   8.044  0.00  0.00    +0.000 C 
ENDBRANCH  22  25
ENDBRANCH  21  22
ENDBRANCH  20  21
ENDBRANCH  19  20
BRANCH  19  26
ATOM     26  C   UNL     1     -19.310  -7.182   9.606  0.00  0.00    +0.000 C 
BRANCH  26  27
ATOM     27  O   UNL     1     -19.039  -5.783   9.502  0.00  0.00    +0.000 OA
BRANCH  27  28
ATOM     28  C   UNL     1     -20.029  -4.848   9.825  0.00  0.00    +0.000 C 
ATOM     29  O   UNL     1     -20.867  -5.241  10.693  0.00  0.00    +0.000 OA
BRANCH  28  30
ATOM     30  C   UNL     1     -19.847  -3.411   9.640  0.00  0.00    +0.000 C 
ATOM     31  C   UNL     1     -18.858  -2.780  10.236  0.00  0.00    +0.000 C 
ATOM     32  C   UNL     1     -20.987  -2.591   9.160  0.00  0.00    +0.000 C 
ENDBRANCH  28  30
ENDBRANCH  27  28
ENDBRANCH  26  27
ENDBRANCH  19  26
ENDBRANCH  18  19
ENDBRANCH   1  18
TORSDOF 12
ENDMDL
MODEL 3
REMARK VINA RESULT:      -6.9     26.935     30.670
REMARK  Name = 
REMARK  12 active torsions:
REMARK  status: ('A' for Active; 'I' for Inactive)
REMARK    1  A    between atoms: C_2  and  C_3
REMARK    2  A    between atoms: C_3  and  O_5
REMARK    3  A    between atoms: O_5  and  C_6
REMARK    4  A    between atoms: C_6  and  C_7
REMARK    5  A    between atoms: C_7  and  C_8
REMARK    6  A    between atoms: C_7  and  O_15
REMARK    7  A    between atoms: C_8  and  O_9
REMARK    8  A    between atoms: O_9  and  C_10
REMARK    9  A    between atoms: C_10  and  C_12
REMARK   10  A    between atoms: O_15  and  C_16
REMARK   11  A    between atoms: C_22  and  C_23
REMARK   12  A    between atoms: C_24  and  C_25
REMARK                            x       y       z     vdW  Elec       q    Type
REMARK                         _______ _______ _______ _____ _____    ______ ____
ROOT
ATOM      1  C   UNL     1     -32.705  -5.011  -6.063  0.00  0.00    +0.000 A 
ATOM      2  C   UNL     1     -31.371  -5.294  -6.253  0.00  0.00    +0.000 A 
ATOM      3  C   UNL     1     -30.358  -4.366  -6.155  0.00  0.00    +0.000 A 
ATOM      4  O   UNL     1     -29.106  -4.590  -6.740  0.00  0.00    +0.000 OA
ATOM      5  C   UNL     1     -30.657  -3.137  -5.578  0.00  0.00    +0.000 A 
ATOM      6  C   UNL     1     -31.981  -2.740  -5.720  0.00  0.00    +0.000 A 
ATOM      7  C   UNL     1     -32.980  -3.645  -6.071  0.00  0.00    +0.000 A 
ENDROOT
BRANCH   7   8
ATOM      8  C   UNL     1     -34.386  -3.231  -6.197  0.00  0.00    +0.000 C 
ATOM      9  C   UNL     1     -34.932  -2.351  -5.391  0.00  0.00    +0.000 C 
BRANCH   9  10
ATOM     10  C   UNL     1     -36.203  -2.543  -4.682  0.00  0.00    +0.000 A 
ATOM     11  C   UNL     1     -37.353  -1.909  -5.106  0.00  0.00    +0.000 A 
ATOM     12  C   UNL     1     -38.529  -2.226  -4.449  0.00  0.00    +0.000 A 
ATOM     13  O   UNL     1     -39.590  -1.325  -4.442  0.00  0.00    +0.000 OA
ATOM     14  C   UNL     1     -38.580  -3.272  -3.565  0.00  0.00    +0.000 A 
ATOM     15  C   UNL     1     -37.538  -4.189  -3.570  0.00  0.00    +0.000 A 
ATOM     16  O   UNL     1     -37.712  -5.462  -3.022  0.00  0.00    +0.000 OA
ATOM     17  C   UNL     1     -36.315  -3.749  -3.994  0.00  0.00    +0.000 A 
ENDBRANCH   9  10
ENDBRANCH   7   8
BRANCH   1  18
ATOM     18  O   UNL     1     -33.656  -5.796  -5.518  0.00  0.00    +0.000 OA
BRANCH  18  19
ATOM     19  C   UNL     1     -33.228  -7.048  -4.685  0.00  0.00    +0.000 C 
BRANCH  19  20
ATOM     20  C   UNL     1     -34.035  -6.556  -3.296  0.00  0.00    +0.000 C 
BRANCH  20  21
ATOM     21  O   UNL     1     -32.903  -6.321  -2.476  0.00  0.00    +0.000 OA
BRANCH  21  22
ATOM     22  C   UNL     1     -32.180  -5.156  -2.482  0.00  0.00    +0.000 C 
ATOM     23  O   UNL     1     -32.772  -4.072  -2.644  0.00  0.00    +0.000 OA
BRANCH  22  25
ATOM     24  C   UNL     1     -30.095  -6.106  -2.822  0.00  0.00    +0.000 C 
ATOM     25  C   UNL     1     -30.741  -5.170  -2.423  0.00  0.00    +0.000 C 
ENDBRANCH  22  25
ENDBRANCH  21  22
ENDBRANCH  20  21
ENDBRANCH  19  20
BRANCH  19  26
ATOM     26  C   UNL     1     -34.558  -7.924  -5.214  0.00  0.00    +0.000 C 
BRANCH  26  27
ATOM     27  O   UNL     1     -35.608  -6.957  -5.139  0.00  0.00    +0.000 OA
BRANCH  27  28
ATOM     28  C   UNL     1     -36.639  -6.963  -6.086  0.00  0.00    +0.000 C 
ATOM     29  O   UNL     1     -37.727  -7.477  -5.683  0.00  0.00    +0.000 OA
BRANCH  28  30
ATOM     30  C   UNL     1     -36.690  -6.023  -7.201  0.00  0.00    +0.000 C 
ATOM     31  C   UNL     1     -37.548  -5.026  -7.198  0.00  0.00    +0.000 C 
ATOM     32  C   UNL     1     -36.110  -6.417  -8.509  0.00  0.00    +0.000 C 
ENDBRANCH  28  30
ENDBRANCH  27  28
ENDBRANCH  26  27
ENDBRANCH  19  26
ENDBRANCH  18  19
ENDBRANCH   1  18
TORSDOF 12
ENDMDL
MODEL 4
REMARK VINA RESULT:      -6.9      1.625      2.167
REMARK  Name = 
REMARK  12 active torsions:
REMARK  status: ('A' for Active; 'I' for Inactive)
REMARK    1  A    between atoms: C_2  and  C_3
REMARK    2  A    between atoms: C_3  and  O_5
REMARK    3  A    between atoms: O_5  and  C_6
REMARK    4  A    between atoms: C_6  and  C_7
REMARK    5  A    between atoms: C_7  and  C_8
REMARK    6  A    between atoms: C_7  and  O_15
REMARK    7  A    between atoms: C_8  and  O_9
REMARK    8  A    between atoms: O_9  and  C_10
REMARK    9  A    between atoms: C_10  and  C_12
REMARK   10  A    between atoms: O_15  and  C_16
REMARK   11  A    between atoms: C_22  and  C_23
REMARK   12  A    between atoms: C_24  and  C_25
REMARK                            x       y       z     vdW  Elec       q    Type
REMARK                         _______ _______ _______ _____ _____    ______ ____
ROOT
ATOM      1  C   UNL     1     -14.747  17.322   1.033  0.00  0.00    +0.000 A 
ATOM      2  C   UNL     1     -14.486  18.581   1.524  0.00  0.00    +0.000 A 
ATOM      3  C   UNL     1     -13.361  18.915   2.246  0.00  0.00    +0.000 A 
ATOM      4  O   UNL     1     -13.326  20.057   3.055  0.00  0.00    +0.000 OA
ATOM      5  C   UNL     1     -12.305  18.009   2.261  0.00  0.00    +0.000 A 
ATOM      6  C   UNL     1     -12.683  16.682   2.094  0.00  0.00    +0.000 A 
ATOM      7  C   UNL     1     -13.935  16.337   1.592  0.00  0.00    +0.000 A 
ENDROOT
BRANCH   7   8
ATOM      8  C   UNL     1     -14.326  14.934   1.392  0.00  0.00    +0.000 C 
ATOM      9  C   UNL     1     -14.892  14.223   2.339  0.00  0.00    +0.000 C 
BRANCH   9  10
ATOM     10  C   UNL     1     -14.450  12.887   2.759  0.00  0.00    +0.000 A 
ATOM     11  C   UNL     1     -15.052  11.751   2.257  0.00  0.00    +0.000 A 
ATOM     12  C   UNL     1     -14.507  10.533   2.620  0.00  0.00    +0.000 A 
ATOM     13  O   UNL     1     -15.290   9.383   2.599  0.00  0.00    +0.000 OA
ATOM     14  C   UNL     1     -13.304  10.469   3.275  0.00  0.00    +0.000 A 
ATOM     15  C   UNL     1     -12.503  11.602   3.291  0.00  0.00    +0.000 A 
ATOM     16  O   UNL     1     -11.135  11.499   3.557  0.00  0.00    +0.000 OA
ATOM     17  C   UNL     1     -13.126  12.814   3.184  0.00  0.00    +0.000 A 
ENDBRANCH   9  10
ENDBRANCH   7   8
BRANCH   1  18
ATOM     18  O   UNL     1     -15.367  16.987  -0.116  0.00  0.00    +0.000 OA
BRANCH  18  19
ATOM     19  C   UNL     1     -15.585  18.078  -1.214  0.00  0.00    +0.000 C 
BRANCH  19  20
ATOM     20  C   UNL     1     -14.982  17.127  -2.460  0.00  0.00    +0.000 C 
BRANCH  20  21
ATOM     21  O   UNL     1     -13.618  17.132  -2.078  0.00  0.00    +0.000 OA
BRANCH  21  22
ATOM     22  C   UNL     1     -12.738  18.138  -2.386  0.00  0.00    +0.000 C 
ATOM     23  O   UNL     1     -12.424  18.329  -3.576  0.00  0.00    +0.000 OA
BRANCH  22  25
ATOM     24  C   UNL     1     -12.301  20.074  -1.191  0.00  0.00    +0.000 C 
ATOM     25  C   UNL     1     -12.083  18.899  -1.355  0.00  0.00    +0.000 C 
ENDBRANCH  22  25
ENDBRANCH  21  22
ENDBRANCH  20  21
ENDBRANCH  19  20
BRANCH  19  26
ATOM     26  C   UNL     1     -17.154  17.557  -1.500  0.00  0.00    +0.000 C 
BRANCH  26  27
ATOM     27  O   UNL     1     -17.338  17.889  -2.878  0.00  0.00    +0.000 OA
BRANCH  27  28
ATOM     28  C   UNL     1     -18.507  17.504  -3.544  0.00  0.00    +0.000 C 
ATOM     29  O   UNL     1     -19.539  17.439  -2.809  0.00  0.00    +0.000 OA
BRANCH  28  30
ATOM     30  C   UNL     1     -18.691  17.685  -4.981  0.00  0.00    +0.000 C 
ATOM     31  C   UNL     1     -19.621  17.015  -5.627  0.00  0.00    +0.000 C 
ATOM     32  C   UNL     1     -17.587  18.264  -5.786  0.00  0.00    +0.000 C 
ENDBRANCH  28  30
ENDBRANCH  27  28
ENDBRANCH  26  27
ENDBRANCH  19  26
ENDBRANCH  18  19
ENDBRANCH   1  18
TORSDOF 12
ENDMDL
MODEL 5
REMARK VINA RESULT:      -6.9      1.935      3.663
REMARK  Name = 
REMARK  12 active torsions:
REMARK  status: ('A' for Active; 'I' for Inactive)
REMARK    1  A    between atoms: C_2  and  C_3
REMARK    2  A    between atoms: C_3  and  O_5
REMARK    3  A    between atoms: O_5  and  C_6
REMARK    4  A    between atoms: C_6  and  C_7
REMARK    5  A    between atoms: C_7  and  C_8
REMARK    6  A    between atoms: C_7  and  O_15
REMARK    7  A    between atoms: C_8  and  O_9
REMARK    8  A    between atoms: O_9  and  C_10
REMARK    9  A    between atoms: C_10  and  C_12
REMARK   10  A    between atoms: O_15  and  C_16
REMARK   11  A    between atoms: C_22  and  C_23
REMARK   12  A    between atoms: C_24  and  C_25
REMARK                            x       y       z     vdW  Elec       q    Type
REMARK                         _______ _______ _______ _____ _____    ______ ____
ROOT
ATOM      1  C   UNL     1     -14.523  17.641   1.010  0.00  0.00    +0.000 A 
ATOM      2  C   UNL     1     -14.313  18.883   1.565  0.00  0.00    +0.000 A 
ATOM      3  C   UNL     1     -13.263  19.194   2.400  0.00  0.00    +0.000 A 
ATOM      4  O   UNL     1     -13.309  20.309   3.245  0.00  0.00    +0.000 OA
ATOM      5  C   UNL     1     -12.211  18.289   2.485  0.00  0.00    +0.000 A 
ATOM      6  C   UNL     1     -12.566  16.968   2.240  0.00  0.00    +0.000 A 
ATOM      7  C   UNL     1     -13.764  16.639   1.611  0.00  0.00    +0.000 A 
ENDROOT
BRANCH   7   8
ATOM      8  C   UNL     1     -14.129  15.242   1.329  0.00  0.00    +0.000 C 
ATOM      9  C   UNL     1     -14.455  14.399   2.280  0.00  0.00    +0.000 C 
BRANCH   9  10
ATOM     10  C   UNL     1     -13.880  13.057   2.440  0.00  0.00    +0.000 A 
ATOM     11  C   UNL     1     -12.729  12.864   3.177  0.00  0.00    +0.000 A 
ATOM     12  C   UNL     1     -12.313  11.559   3.369  0.00  0.00    +0.000 A 
ATOM     13  O   UNL     1     -10.974  11.284   3.634  0.00  0.00    +0.000 OA
ATOM     14  C   UNL     1     -13.118  10.505   3.021  0.00  0.00    +0.000 A 
ATOM     15  C   UNL     1     -14.459  10.759   2.769  0.00  0.00    +0.000 A 
ATOM     16  O   UNL     1     -15.398   9.725   2.823  0.00  0.00    +0.000 OA
ATOM     17  C   UNL     1     -14.791  12.010   2.330  0.00  0.00    +0.000 A 
ENDBRANCH   9  10
ENDBRANCH   7   8
BRANCH   1  18
ATOM     18  O   UNL     1     -15.030  17.343  -0.203  0.00  0.00    +0.000 OA
BRANCH  18  19
ATOM     19  C   UNL     1     -14.534  18.137  -1.455  0.00  0.00    +0.000 C 
BRANCH  19  20
ATOM     20  C   UNL     1     -14.922  16.916  -2.541  0.00  0.00    +0.000 C 
BRANCH  20  21
ATOM     21  O   UNL     1     -14.128  17.353  -3.630  0.00  0.00    +0.000 OA
BRANCH  21  22
ATOM     22  C   UNL     1     -14.589  17.471  -4.917  0.00  0.00    +0.000 C 
ATOM     23  O   UNL     1     -14.040  16.815  -5.823  0.00  0.00    +0.000 OA
BRANCH  22  25
ATOM     24  C   UNL     1     -16.757  18.086  -5.454  0.00  0.00    +0.000 C 
ATOM     25  C   UNL     1     -15.615  18.421  -5.258  0.00  0.00    +0.000 C 
ENDBRANCH  22  25
ENDBRANCH  21  22
ENDBRANCH  20  21
ENDBRANCH  19  20
BRANCH  19  26
ATOM     26  C   UNL     1     -16.032  18.867  -1.654  0.00  0.00    +0.000 C 
BRANCH  26  27
ATOM     27  O   UNL     1     -16.920  17.746  -1.650  0.00  0.00    +0.000 OA
BRANCH  27  28
ATOM     28  C   UNL     1     -18.285  17.932  -1.405  0.00  0.00    +0.000 C 
ATOM     29  O   UNL     1     -19.045  17.608  -2.368  0.00  0.00    +0.000 OA
BRANCH  28  30
ATOM     30  C   UNL     1     -18.847  17.958  -0.058  0.00  0.00    +0.000 C 
ATOM     31  C   UNL     1     -19.532  16.933   0.402  0.00  0.00    +0.000 C 
ATOM     32  C   UNL     1     -19.035  19.263   0.624  0.00  0.00    +0.000 C 
ENDBRANCH  28  30
ENDBRANCH  27  28
ENDBRANCH  26  27
ENDBRANCH  19  26
ENDBRANCH  18  19
ENDBRANCH   1  18
TORSDOF 12
ENDMDL
MODEL 6
REMARK VINA RESULT:      -6.8     17.371     21.966
REMARK  Name = 
REMARK  12 active torsions:
REMARK  status: ('A' for Active; 'I' for Inactive)
REMARK    1  A    between atoms: C_2  and  C_3
REMARK    2  A    between atoms: C_3  and  O_5
REMARK    3  A    between atoms: O_5  and  C_6
REMARK    4  A    between atoms: C_6  and  C_7
REMARK    5  A    between atoms: C_7  and  C_8
REMARK    6  A    between atoms: C_7  and  O_15
REMARK    7  A    between atoms: C_8  and  O_9
REMARK    8  A    between atoms: O_9  and  C_10
REMARK    9  A    between atoms: C_10  and  C_12
REMARK   10  A    between atoms: O_15  and  C_16
REMARK   11  A    between atoms: C_22  and  C_23
REMARK   12  A    between atoms: C_24  and  C_25
REMARK                            x       y       z     vdW  Elec       q    Type
REMARK                         _______ _______ _______ _____ _____    ______ ____
ROOT
ATOM      1  C   UNL     1     -18.160  -0.616   6.599  0.00  0.00    +0.000 A 
ATOM      2  C   UNL     1     -17.691   0.675   6.685  0.00  0.00    +0.000 A 
ATOM      3  C   UNL     1     -16.402   1.054   6.383  0.00  0.00    +0.000 A 
ATOM      4  O   UNL     1     -15.864   2.255   6.861  0.00  0.00    +0.000 OA
ATOM      5  C   UNL     1     -15.599   0.144   5.704  0.00  0.00    +0.000 A 
ATOM      6  C   UNL     1     -15.919  -1.189   5.933  0.00  0.00    +0.000 A 
ATOM      7  C   UNL     1     -17.144  -1.562   6.482  0.00  0.00    +0.000 A 
ENDROOT
BRANCH   7   8
ATOM      8  C   UNL     1     -17.493  -2.973   6.701  0.00  0.00    +0.000 C 
ATOM      9  C   UNL     1     -16.684  -3.954   6.377  0.00  0.00    +0.000 C 
BRANCH   9  10
ATOM     10  C   UNL     1     -17.069  -5.128   5.584  0.00  0.00    +0.000 A 
ATOM     11  C   UNL     1     -16.163  -5.742   4.741  0.00  0.00    +0.000 A 
ATOM     12  C   UNL     1     -16.573  -6.903   4.112  0.00  0.00    +0.000 A 
ATOM     13  O   UNL     1     -15.974  -7.299   2.919  0.00  0.00    +0.000 OA
ATOM     14  C   UNL     1     -17.741  -7.523   4.471  0.00  0.00    +0.000 A 
ATOM     15  C   UNL     1     -18.342  -7.152   5.665  0.00  0.00    +0.000 A 
ATOM     16  O   UNL     1     -19.265  -7.997   6.287  0.00  0.00    +0.000 OA
ATOM     17  C   UNL     1     -18.106  -5.885   6.121  0.00  0.00    +0.000 A 
ENDBRANCH   9  10
ENDBRANCH   7   8
BRANCH   1  18
ATOM     18  O   UNL     1     -19.392  -1.035   6.244  0.00  0.00    +0.000 OA
BRANCH  18  19
ATOM     19  C   UNL     1     -20.281  -1.773   7.297  0.00  0.00    +0.000 C 
BRANCH  19  20
ATOM     20  C   UNL     1     -19.800  -0.797   8.576  0.00  0.00    +0.000 C 
BRANCH  20  21
ATOM     21  O   UNL     1     -20.326  -1.577   9.636  0.00  0.00    +0.000 OA
BRANCH  21  22
ATOM     22  C   UNL     1     -19.816  -2.791  10.021  0.00  0.00    +0.000 C 
ATOM     23  O   UNL     1     -18.583  -2.921  10.148  0.00  0.00    +0.000 OA
BRANCH  22  25
ATOM     24  C   UNL     1     -21.804  -3.854  10.552  0.00  0.00    +0.000 C 
ATOM     25  C   UNL     1     -20.664  -3.944  10.168  0.00  0.00    +0.000 C 
ENDBRANCH  22  25
ENDBRANCH  21  22
ENDBRANCH  20  21
ENDBRANCH  19  20
BRANCH  19  26
ATOM     26  C   UNL     1     -21.595  -0.785   6.963  0.00  0.00    +0.000 C 
BRANCH  26  27
ATOM     27  O   UNL     1     -22.297  -1.536   5.970  0.00  0.00    +0.000 OA
BRANCH  27  28
ATOM     28  C   UNL     1     -23.695  -1.607   5.998  0.00  0.00    +0.000 C 
ATOM     29  O   UNL     1     -24.236  -1.851   4.877  0.00  0.00    +0.000 OA
BRANCH  28  30
ATOM     30  C   UNL     1     -24.443  -1.921   7.211  0.00  0.00    +0.000 C 
ATOM     31  C   UNL     1     -24.468  -3.148   7.683  0.00  0.00    +0.000 C 
ATOM     32  C   UNL     1     -25.512  -0.996   7.663  0.00  0.00    +0.000 C 
ENDBRANCH  28  30
ENDBRANCH  27  28
ENDBRANCH  26  27
ENDBRANCH  19  26
ENDBRANCH  18  19
ENDBRANCH   1  18
TORSDOF 12
ENDMDL
MODEL 7
REMARK VINA RESULT:      -6.8     26.705     30.607
REMARK  Name = 
REMARK  12 active torsions:
REMARK  status: ('A' for Active; 'I' for Inactive)
REMARK    1  A    between atoms: C_2  and  C_3
REMARK    2  A    between atoms: C_3  and  O_5
REMARK    3  A    between atoms: O_5  and  C_6
REMARK    4  A    between atoms: C_6  and  C_7
REMARK    5  A    between atoms: C_7  and  C_8
REMARK    6  A    between atoms: C_7  and  O_15
REMARK    7  A    between atoms: C_8  and  O_9
REMARK    8  A    between atoms: O_9  and  C_10
REMARK    9  A    between atoms: C_10  and  C_12
REMARK   10  A    between atoms: O_15  and  C_16
REMARK   11  A    between atoms: C_22  and  C_23
REMARK   12  A    between atoms: C_24  and  C_25
REMARK                            x       y       z     vdW  Elec       q    Type
REMARK                         _______ _______ _______ _____ _____    ______ ____
ROOT
ATOM      1  C   UNL     1     -33.253  -5.053  -3.535  0.00  0.00    +0.000 A 
ATOM      2  C   UNL     1     -32.479  -4.621  -2.482  0.00  0.00    +0.000 A 
ATOM      3  C   UNL     1     -32.057  -5.425  -1.447  0.00  0.00    +0.000 A 
ATOM      4  O   UNL     1     -31.639  -4.883  -0.226  0.00  0.00    +0.000 OA
ATOM      5  C   UNL     1     -32.191  -6.801  -1.597  0.00  0.00    +0.000 A 
ATOM      6  C   UNL     1     -33.233  -7.191  -2.429  0.00  0.00    +0.000 A 
ATOM      7  C   UNL     1     -33.837  -6.298  -3.311  0.00  0.00    +0.000 A 
ENDROOT
BRANCH   7   8
ATOM      8  C   UNL     1     -34.924  -6.716  -4.209  0.00  0.00    +0.000 C 
ATOM      9  C   UNL     1     -34.911  -7.870  -4.833  0.00  0.00    +0.000 C 
BRANCH   9  10
ATOM     10  C   UNL     1     -35.143  -8.045  -6.272  0.00  0.00    +0.000 A 
ATOM     11  C   UNL     1     -35.420  -9.290  -6.800  0.00  0.00    +0.000 A 
ATOM     12  C   UNL     1     -35.730  -9.352  -8.146  0.00  0.00    +0.000 A 
ATOM     13  O   UNL     1     -35.531 -10.533  -8.856  0.00  0.00    +0.000 OA
ATOM     14  C   UNL     1     -35.956  -8.209  -8.869  0.00  0.00    +0.000 A 
ATOM     15  C   UNL     1     -36.174  -7.026  -8.177  0.00  0.00    +0.000 A 
ATOM     16  O   UNL     1     -36.806  -5.947  -8.799  0.00  0.00    +0.000 OA
ATOM     17  C   UNL     1     -35.620  -6.915  -6.932  0.00  0.00    +0.000 A 
ENDBRANCH   9  10
ENDBRANCH   7   8
BRANCH   1  18
ATOM     18  O   UNL     1     -33.213  -4.649  -4.821  0.00  0.00    +0.000 OA
BRANCH  18  19
ATOM     19  C   UNL     1     -32.657  -3.228  -5.159  0.00  0.00    +0.000 C 
BRANCH  19  20
ATOM     20  C   UNL     1     -32.017  -3.691  -6.642  0.00  0.00    +0.000 C 
BRANCH  20  21
ATOM     21  O   UNL     1     -31.298  -4.831  -6.206  0.00  0.00    +0.000 OA
BRANCH  21  22
ATOM     22  C   UNL     1     -29.969  -4.816  -5.865  0.00  0.00    +0.000 C 
ATOM     23  O   UNL     1     -29.124  -4.496  -6.723  0.00  0.00    +0.000 OA
BRANCH  22  25
ATOM     24  C   UNL     1     -28.887  -4.569  -3.832  0.00  0.00    +0.000 C 
ATOM     25  C   UNL     1     -29.524  -5.274  -4.575  0.00  0.00    +0.000 C 
ENDBRANCH  22  25
ENDBRANCH  21  22
ENDBRANCH  20  21
ENDBRANCH  19  20
BRANCH  19  26
ATOM     26  C   UNL     1     -34.108  -2.768  -5.865  0.00  0.00    +0.000 C 
BRANCH  26  27
ATOM     27  O   UNL     1     -34.868  -2.326  -4.738  0.00  0.00    +0.000 OA
BRANCH  27  28
ATOM     28  C   UNL     1     -36.257  -2.182  -4.839  0.00  0.00    +0.000 C 
ATOM     29  O   UNL     1     -36.638  -1.196  -5.542  0.00  0.00    +0.000 OA
BRANCH  28  30
ATOM     30  C   UNL     1     -37.180  -3.297  -4.652  0.00  0.00    +0.000 C 
ATOM     31  C   UNL     1     -37.269  -3.904  -3.488  0.00  0.00    +0.000 C 
ATOM     32  C   UNL     1     -37.684  -4.028  -5.841  0.00  0.00    +0.000 C 
ENDBRANCH  28  30
ENDBRANCH  27  28
ENDBRANCH  26  27
ENDBRANCH  19  26
ENDBRANCH  18  19
ENDBRANCH   1  18
TORSDOF 12
ENDMDL
MODEL 8
REMARK VINA RESULT:      -6.7     27.093     30.870
REMARK  Name = 
REMARK  12 active torsions:
REMARK  status: ('A' for Active; 'I' for Inactive)
REMARK    1  A    between atoms: C_2  and  C_3
REMARK    2  A    between atoms: C_3  and  O_5
REMARK    3  A    between atoms: O_5  and  C_6
REMARK    4  A    between atoms: C_6  and  C_7
REMARK    5  A    between atoms: C_7  and  C_8
REMARK    6  A    between atoms: C_7  and  O_15
REMARK    7  A    between atoms: C_8  and  O_9
REMARK    8  A    between atoms: O_9  and  C_10
REMARK    9  A    between atoms: C_10  and  C_12
REMARK   10  A    between atoms: O_15  and  C_16
REMARK   11  A    between atoms: C_22  and  C_23
REMARK   12  A    between atoms: C_24  and  C_25
REMARK                            x       y       z     vdW  Elec       q    Type
REMARK                         _______ _______ _______ _____ _____    ______ ____
ROOT
ATOM      1  C   UNL     1     -33.123  -5.011  -6.193  0.00  0.00    +0.000 A 
ATOM      2  C   UNL     1     -31.772  -5.269  -6.256  0.00  0.00    +0.000 A 
ATOM      3  C   UNL     1     -30.791  -4.321  -6.070  0.00  0.00    +0.000 A 
ATOM      4  O   UNL     1     -29.486  -4.521  -6.533  0.00  0.00    +0.000 OA
ATOM      5  C   UNL     1     -31.167  -3.094  -5.532  0.00  0.00    +0.000 A 
ATOM      6  C   UNL     1     -32.479  -2.725  -5.801  0.00  0.00    +0.000 A 
ATOM      7  C   UNL     1     -33.423  -3.652  -6.237  0.00  0.00    +0.000 A 
ENDROOT
BRANCH   7   8
ATOM      8  C   UNL     1     -34.819  -3.267  -6.498  0.00  0.00    +0.000 C 
ATOM      9  C   UNL     1     -35.387  -2.246  -5.900  0.00  0.00    +0.000 C 
BRANCH   9  10
ATOM     10  C   UNL     1     -36.687  -2.295  -5.218  0.00  0.00    +0.000 A 
ATOM     11  C   UNL     1     -36.768  -2.555  -3.865  0.00  0.00    +0.000 A 
ATOM     12  C   UNL     1     -38.019  -2.478  -3.281  0.00  0.00    +0.000 A 
ATOM     13  O   UNL     1     -38.288  -3.181  -2.110  0.00  0.00    +0.000 OA
ATOM     14  C   UNL     1     -39.087  -1.964  -3.970  0.00  0.00    +0.000 A 
ATOM     15  C   UNL     1     -38.836  -1.245  -5.130  0.00  0.00    +0.000 A 
ATOM     16  O   UNL     1     -39.793  -0.364  -5.639  0.00  0.00    +0.000 OA
ATOM     17  C   UNL     1     -37.694  -1.544  -5.819  0.00  0.00    +0.000 A 
ENDBRANCH   9  10
ENDBRANCH   7   8
BRANCH   1  18
ATOM     18  O   UNL     1     -34.105  -5.813  -5.735  0.00  0.00    +0.000 OA
BRANCH  18  19
ATOM     19  C   UNL     1     -34.326  -5.946  -4.193  0.00  0.00    +0.000 C 
BRANCH  19  20
ATOM     20  C   UNL     1     -35.753  -6.819  -4.345  0.00  0.00    +0.000 C 
BRANCH  20  21
ATOM     21  O   UNL     1     -36.574  -5.782  -4.852  0.00  0.00    +0.000 OA
BRANCH  21  22
ATOM     22  C   UNL     1     -37.522  -5.961  -5.828  0.00  0.00    +0.000 C 
ATOM     23  O   UNL     1     -37.293  -6.754  -6.761  0.00  0.00    +0.000 OA
BRANCH  22  25
ATOM     24  C   UNL     1     -39.191  -4.756  -6.890  0.00  0.00    +0.000 C 
ATOM     25  C   UNL     1     -38.722  -5.166  -5.857  0.00  0.00    +0.000 C 
ENDBRANCH  22  25
ENDBRANCH  21  22
ENDBRANCH  20  21
ENDBRANCH  19  20
BRANCH  19  26
ATOM     26  C   UNL     1     -33.409  -7.350  -4.127  0.00  0.00    +0.000 C 
BRANCH  26  27
ATOM     27  O   UNL     1     -32.740  -7.216  -2.871  0.00  0.00    +0.000 OA
BRANCH  27  28
ATOM     28  C   UNL     1     -31.392  -6.838  -2.828  0.00  0.00    +0.000 C 
ATOM     29  O   UNL     1     -30.601  -7.626  -3.432  0.00  0.00    +0.000 OA
BRANCH  28  30
ATOM     30  C   UNL     1     -30.968  -5.457  -2.618  0.00  0.00    +0.000 C 
ATOM     31  C   UNL     1     -29.709  -5.112  -2.780  0.00  0.00    +0.000 C 
ATOM     32  C   UNL     1     -31.825  -4.550  -1.815  0.00  0.00    +0.000 C 
ENDBRANCH  28  30
ENDBRANCH  27  28
ENDBRANCH  26  27
ENDBRANCH  19  26
ENDBRANCH  18  19
ENDBRANCH   1  18
TORSDOF 12
ENDMDL
MODEL 9
REMARK VINA RESULT:      -6.6     27.228     31.032
REMARK  Name = 
REMARK  12 active torsions:
REMARK  status: ('A' for Active; 'I' for Inactive)
REMARK    1  A    between atoms: C_2  and  C_3
REMARK    2  A    between atoms: C_3  and  O_5
REMARK    3  A    between atoms: O_5  and  C_6
REMARK    4  A    between atoms: C_6  and  C_7
REMARK    5  A    between atoms: C_7  and  C_8
REMARK    6  A    between atoms: C_7  and  O_15
REMARK    7  A    between atoms: C_8  and  O_9
REMARK    8  A    between atoms: O_9  and  C_10
REMARK    9  A    between atoms: C_10  and  C_12
REMARK   10  A    between atoms: O_15  and  C_16
REMARK   11  A    between atoms: C_22  and  C_23
REMARK   12  A    between atoms: C_24  and  C_25
REMARK                            x       y       z     vdW  Elec       q    Type
REMARK                         _______ _______ _______ _____ _____    ______ ____
ROOT
ATOM      1  C   UNL     1     -33.118  -5.080  -5.399  0.00  0.00    +0.000 A 
ATOM      2  C   UNL     1     -31.814  -5.368  -5.730  0.00  0.00    +0.000 A 
ATOM      3  C   UNL     1     -30.836  -4.419  -5.930  0.00  0.00    +0.000 A 
ATOM      4  O   UNL     1     -29.669  -4.714  -6.644  0.00  0.00    +0.000 OA
ATOM      5  C   UNL     1     -31.101  -3.116  -5.523  0.00  0.00    +0.000 A 
ATOM      6  C   UNL     1     -32.448  -2.772  -5.536  0.00  0.00    +0.000 A 
ATOM      7  C   UNL     1     -33.448  -3.739  -5.588  0.00  0.00    +0.000 A 
ENDROOT
BRANCH   7   8
ATOM      8  C   UNL     1     -34.873  -3.377  -5.577  0.00  0.00    +0.000 C 
ATOM      9  C   UNL     1     -35.653  -3.571  -6.615  0.00  0.00    +0.000 C 
BRANCH   9  10
ATOM     10  C   UNL     1     -36.534  -2.553  -7.200  0.00  0.00    +0.000 A 
ATOM     11  C   UNL     1     -37.340  -2.850  -8.281  0.00  0.00    +0.000 A 
ATOM     12  C   UNL     1     -38.217  -1.868  -8.705  0.00  0.00    +0.000 A 
ATOM     13  O   UNL     1     -38.678  -1.862 -10.018  0.00  0.00    +0.000 OA
ATOM     14  C   UNL     1     -38.420  -0.737  -7.957  0.00  0.00    +0.000 A 
ATOM     15  C   UNL     1     -37.982  -0.731  -6.641  0.00  0.00    +0.000 A 
ATOM     16  O   UNL     1     -38.506   0.181  -5.722  0.00  0.00    +0.000 OA
ATOM     17  C   UNL     1     -36.929  -1.544  -6.325  0.00  0.00    +0.000 A 
ENDBRANCH   9  10
ENDBRANCH   7   8
BRANCH   1  18
ATOM     18  O   UNL     1     -33.952  -5.781  -4.604  0.00  0.00    +0.000 OA
BRANCH  18  19
ATOM     19  C   UNL     1     -33.589  -7.253  -4.227  0.00  0.00    +0.000 C 
BRANCH  19  20
ATOM     20  C   UNL     1     -33.833  -7.026  -2.580  0.00  0.00    +0.000 C 
BRANCH  20  21
ATOM     21  O   UNL     1     -32.584  -7.513  -2.120  0.00  0.00    +0.000 OA
BRANCH  21  22
ATOM     22  C   UNL     1     -31.395  -6.849  -2.282  0.00  0.00    +0.000 C 
ATOM     23  O   UNL     1     -30.369  -7.496  -2.565  0.00  0.00    +0.000 OA
BRANCH  22  25
ATOM     24  C   UNL     1     -31.494  -4.976  -0.922  0.00  0.00    +0.000 C 
ATOM     25  C   UNL     1     -31.286  -5.438  -2.017  0.00  0.00    +0.000 C 
ENDBRANCH  22  25
ENDBRANCH  21  22
ENDBRANCH  20  21
ENDBRANCH  19  20
BRANCH  19  26
ATOM     26  C   UNL     1     -35.173  -7.759  -4.448  0.00  0.00    +0.000 C 
BRANCH  26  27
ATOM     27  O   UNL     1     -35.889  -6.521  -4.463  0.00  0.00    +0.000 OA
BRANCH  27  28
ATOM     28  C   UNL     1     -37.253  -6.493  -4.152  0.00  0.00    +0.000 C 
ATOM     29  O   UNL     1     -37.640  -7.421  -3.378  0.00  0.00    +0.000 OA
BRANCH  28  30
ATOM     30  C   UNL     1     -38.052  -5.273  -4.223  0.00  0.00    +0.000 C 
ATOM     31  C   UNL     1     -38.828  -5.041  -5.259  0.00  0.00    +0.000 C 
ATOM     32  C   UNL     1     -37.677  -4.111  -3.379  0.00  0.00    +0.000 C 
ENDBRANCH  28  30
ENDBRANCH  27  28
ENDBRANCH  26  27
ENDBRANCH  19  26
ENDBRANCH  18  19
ENDBRANCH   1  18
TORSDOF 12
ENDMDL
MODEL 10
REMARK VINA RESULT:      -6.3     26.937     31.086
REMARK  Name = 
REMARK  12 active torsions:
REMARK  status: ('A' for Active; 'I' for Inactive)
REMARK    1  A    between atoms: C_2  and  C_3
REMARK    2  A    between atoms: C_3  and  O_5
REMARK    3  A    between atoms: O_5  and  C_6
REMARK    4  A    between atoms: C_6  and  C_7
REMARK    5  A    between atoms: C_7  and  C_8
REMARK    6  A    between atoms: C_7  and  O_15
REMARK    7  A    between atoms: C_8  and  O_9
REMARK    8  A    between atoms: O_9  and  C_10
REMARK    9  A    between atoms: C_10  and  C_12
REMARK   10  A    between atoms: O_15  and  C_16
REMARK   11  A    between atoms: C_22  and  C_23
REMARK   12  A    between atoms: C_24  and  C_25
REMARK                            x       y       z     vdW  Elec       q    Type
REMARK                         _______ _______ _______ _____ _____    ______ ____
ROOT
ATOM      1  C   UNL     1     -32.749  -4.978  -6.184  0.00  0.00    +0.000 A 
ATOM      2  C   UNL     1     -31.411  -5.220  -6.399  0.00  0.00    +0.000 A 
ATOM      3  C   UNL     1     -30.414  -4.289  -6.209  0.00  0.00    +0.000 A 
ATOM      4  O   UNL     1     -29.158  -4.433  -6.811  0.00  0.00    +0.000 OA
ATOM      5  C   UNL     1     -30.733  -3.126  -5.516  0.00  0.00    +0.000 A 
ATOM      6  C   UNL     1     -32.064  -2.740  -5.621  0.00  0.00    +0.000 A 
ATOM      7  C   UNL     1     -33.048  -3.623  -6.059  0.00  0.00    +0.000 A 
ENDROOT
BRANCH   7   8
ATOM      8  C   UNL     1     -34.460  -3.224  -6.147  0.00  0.00    +0.000 C 
ATOM      9  C   UNL     1     -35.063  -2.567  -5.184  0.00  0.00    +0.000 C 
BRANCH   9  10
ATOM     10  C   UNL     1     -36.353  -2.947  -4.594  0.00  0.00    +0.000 A 
ATOM     11  C   UNL     1     -36.865  -2.262  -3.510  0.00  0.00    +0.000 A 
ATOM     12  C   UNL     1     -38.132  -2.613  -3.081  0.00  0.00    +0.000 A 
ATOM     13  O   UNL     1     -38.517  -2.369  -1.766  0.00  0.00    +0.000 OA
ATOM     14  C   UNL     1     -38.919  -3.452  -3.827  0.00  0.00    +0.000 A 
ATOM     15  C   UNL     1     -38.559  -3.693  -5.145  0.00  0.00    +0.000 A 
ATOM     16  O   UNL     1     -39.498  -4.175  -6.060  0.00  0.00    +0.000 OA
ATOM     17  C   UNL     1     -37.235  -3.580  -5.466  0.00  0.00    +0.000 A 
ENDBRANCH   9  10
ENDBRANCH   7   8
BRANCH   1  18
ATOM     18  O   UNL     1     -33.686  -5.829  -5.719  0.00  0.00    +0.000 OA
BRANCH  18  19
ATOM     19  C   UNL     1     -33.367  -6.709  -4.468  0.00  0.00    +0.000 C 
BRANCH  19  20
ATOM     20  C   UNL     1     -34.279  -5.770  -3.416  0.00  0.00    +0.000 C 
BRANCH  20  21
ATOM     21  O   UNL     1     -33.217  -5.060  -2.803  0.00  0.00    +0.000 OA
BRANCH  21  22
ATOM     22  C   UNL     1     -32.284  -5.636  -1.979  0.00  0.00    +0.000 C 
ATOM     23  O   UNL     1     -32.642  -6.515  -1.174  0.00  0.00    +0.000 OA
BRANCH  22  25
ATOM     24  C   UNL     1     -30.100  -5.531  -2.746  0.00  0.00    +0.000 C 
ATOM     25  C   UNL     1     -30.924  -5.163  -1.946  0.00  0.00    +0.000 C 
ENDBRANCH  22  25
ENDBRANCH  21  22
ENDBRANCH  20  21
ENDBRANCH  19  20
BRANCH  19  26
ATOM     26  C   UNL     1     -34.667  -7.723  -4.779  0.00  0.00    +0.000 C 
BRANCH  26  27
ATOM     27  O   UNL     1     -34.841  -8.389  -3.526  0.00  0.00    +0.000 OA
BRANCH  27  28
ATOM     28  C   UNL     1     -36.126  -8.705  -3.070  0.00  0.00    +0.000 C 
ATOM     29  O   UNL     1     -36.169  -9.187  -1.897  0.00  0.00    +0.000 OA
BRANCH  28  30
ATOM     30  C   UNL     1     -37.329  -8.073  -3.603  0.00  0.00    +0.000 C 
ATOM     31  C   UNL     1     -37.820  -6.988  -3.042  0.00  0.00    +0.000 C 
ATOM     32  C   UNL     1     -38.239  -8.861  -4.471  0.00  0.00    +0.000 C 
ENDBRANCH  28  30
ENDBRANCH  27  28
ENDBRANCH  26  27
ENDBRANCH  19  26
ENDBRANCH  18  19
ENDBRANCH   1  18
TORSDOF 12
ENDMDL
