MODEL 1
REMARK VINA RESULT:      -7.4      0.000      0.000
REMARK  Name = 
REMARK  12 active torsions:
REMARK  status: ('A' for Active; 'I' for Inactive)
REMARK    1  A    between atoms: C_2  and  C_3
REMARK    2  A    between atoms: C_3  and  O_5
REMARK    3  A    between atoms: O_5  and  C_6
REMARK    4  A    between atoms: C_6  and  C_7
REMARK    5  A    between atoms: C_7  and  C_8
REMARK    6  A    between atoms: C_7  and  O_15
REMARK    7  A    between atoms: C_8  and  O_9
REMARK    8  A    between atoms: O_9  and  C_10
REMARK    9  A    between atoms: C_10  and  C_12
REMARK   10  A    between atoms: O_15  and  C_16
REMARK   11  A    between atoms: C_22  and  C_23
REMARK   12  A    between atoms: C_24  and  C_25
REMARK                            x       y       z     vdW  Elec       q    Type
REMARK                         _______ _______ _______ _____ _____    ______ ____
ROOT
ATOM      1  C   UNL     1     -19.274  -4.969   8.307  0.00  0.00    +0.000 A 
ATOM      2  C   UNL     1     -18.699  -6.212   8.572  0.00  0.00    +0.000 A 
ATOM      3  C   UNL     1     -19.413  -7.163   9.294  0.00  0.00    +0.000 A 
ATOM      4  O   UNL     1     -18.661  -8.171   9.888  0.00  0.00    +0.000 OA
ATOM      5  C   UNL     1     -20.632  -6.767   9.835  0.00  0.00    +0.000 A 
ATOM      6  C   UNL     1     -21.120  -5.483   9.607  0.00  0.00    +0.000 A 
ATOM      7  C   UNL     1     -20.264  -4.477   9.160  0.00  0.00    +0.000 A 
ENDROOT
BRANCH   7   8
ATOM      8  C   UNL     1     -20.107  -3.180   9.678  0.00  0.00    +0.000 C 
ATOM      9  C   UNL     1     -19.785  -2.016   9.462  0.00  0.00    +0.000 C 
BRANCH   9  10
ATOM     10  C   UNL     1     -20.161  -0.978   8.512  0.00  0.00    +0.000 A 
ATOM     11  C   UNL     1     -19.647   0.318   8.607  0.00  0.00    +0.000 A 
ATOM     12  C   UNL     1     -18.982   0.909   7.538  0.00  0.00    +0.000 A 
ATOM     13  O   UNL     1     -17.939   1.809   7.691  0.00  0.00    +0.000 OA
ATOM     14  C   UNL     1     -19.412   0.532   6.271  0.00  0.00    +0.000 A 
ATOM     15  C   UNL     1     -20.385  -0.454   6.148  0.00  0.00    +0.000 A 
ATOM     16  O   UNL     1     -21.193  -0.481   5.007  0.00  0.00    +0.000 OA
ATOM     17  C   UNL     1     -20.603  -1.298   7.231  0.00  0.00    +0.000 A 
ENDBRANCH   9  10
ENDBRANCH   7   8
BRANCH   1  18
ATOM     18  O   UNL     1     -18.744  -4.183   7.363  0.00  0.00    +0.000 OA
BRANCH  18  19
ATOM     19  C   UNL     1     -17.232  -4.001   7.173  0.00  0.00    +0.000 C 
BRANCH  19  20
ATOM     20  C   UNL     1     -17.315  -2.424   6.728  0.00  0.00    +0.000 C 
BRANCH  20  21
ATOM     21  O   UNL     1     -16.192  -1.998   6.119  0.00  0.00    +0.000 OA
BRANCH  21  22
ATOM     22  C   UNL     1     -15.745  -0.691   6.023  0.00  0.00    +0.000 C 
ATOM     23  O   UNL     1     -16.253  -0.020   5.094  0.00  0.00    +0.000 OA
BRANCH  22  25
ATOM     24  C   UNL     1     -14.662   0.856   7.232  0.00  0.00    +0.000 C 
ATOM     25  C   UNL     1     -15.057  -0.136   7.170  0.00  0.00    +0.000 C 
ENDBRANCH  22  25
ENDBRANCH  21  22
ENDBRANCH  20  21
ENDBRANCH  19  20
BRANCH  19  26
ATOM     26  C   UNL     1     -17.313  -4.605   5.639  0.00  0.00    +0.000 C 
BRANCH  26  27
ATOM     27  O   UNL     1     -16.626  -5.847   5.717  0.00  0.00    +0.000 OA
BRANCH  27  28
ATOM     28  C   UNL     1     -16.929  -6.890   4.841  0.00  0.00    +0.000 C 
ATOM     29  O   UNL     1     -18.093  -7.372   4.959  0.00  0.00    +0.000 OA
BRANCH  28  30
ATOM     30  C   UNL     1     -16.016  -7.299   3.766  0.00  0.00    +0.000 C 
ATOM     31  C   UNL     1     -15.959  -8.615   3.545  0.00  0.00    +0.000 C 
ATOM     32  C   UNL     1     -16.083  -6.477   2.515  0.00  0.00    +0.000 C 
ENDBRANCH  28  30
ENDBRANCH  27  28
ENDBRANCH  26  27
ENDBRANCH  19  26
ENDBRANCH  18  19
ENDBRANCH   1  18
TORSDOF 12
ENDMDL
MODEL 2
REMARK VINA RESULT:      -7.3      1.914      7.062
REMARK  Name = 
REMARK  12 active torsions:
REMARK  status: ('A' for Active; 'I' for Inactive)
REMARK    1  A    between atoms: C_2  and  C_3
REMARK    2  A    between atoms: C_3  and  O_5
REMARK    3  A    between atoms: O_5  and  C_6
REMARK    4  A    between atoms: C_6  and  C_7
REMARK    5  A    between atoms: C_7  and  C_8
REMARK    6  A    between atoms: C_7  and  O_15
REMARK    7  A    between atoms: C_8  and  O_9
REMARK    8  A    between atoms: O_9  and  C_10
REMARK    9  A    between atoms: C_10  and  C_12
REMARK   10  A    between atoms: O_15  and  C_16
REMARK   11  A    between atoms: C_22  and  C_23
REMARK   12  A    between atoms: C_24  and  C_25
REMARK                            x       y       z     vdW  Elec       q    Type
REMARK                         _______ _______ _______ _____ _____    ______ ____
ROOT
ATOM      1  C   UNL     1     -19.221  -2.910   7.427  0.00  0.00    +0.000 A 
ATOM      2  C   UNL     1     -20.331  -3.185   8.226  0.00  0.00    +0.000 A 
ATOM      3  C   UNL     1     -20.227  -4.109   9.260  0.00  0.00    +0.000 A 
ATOM      4  O   UNL     1     -21.422  -4.651   9.718  0.00  0.00    +0.000 OA
ATOM      5  C   UNL     1     -19.035  -4.819   9.359  0.00  0.00    +0.000 A 
ATOM      6  C   UNL     1     -17.986  -4.562   8.480  0.00  0.00    +0.000 A 
ATOM      7  C   UNL     1     -18.223  -3.877   7.288  0.00  0.00    +0.000 A 
ENDROOT
BRANCH   7   8
ATOM      8  C   UNL     1     -17.822  -4.234   5.989  0.00  0.00    +0.000 C 
ATOM      9  C   UNL     1     -17.194  -5.015   5.284  0.00  0.00    +0.000 C 
BRANCH   9  10
ATOM     10  C   UNL     1     -17.162  -6.457   5.077  0.00  0.00    +0.000 A 
ATOM     11  C   UNL     1     -18.183  -7.285   5.552  0.00  0.00    +0.000 A 
ATOM     12  C   UNL     1     -18.876  -8.134   4.696  0.00  0.00    +0.000 A 
ATOM     13  O   UNL     1     -20.212  -8.464   4.864  0.00  0.00    +0.000 OA
ATOM     14  C   UNL     1     -18.151  -8.641   3.624  0.00  0.00    +0.000 A 
ATOM     15  C   UNL     1     -16.846  -8.206   3.419  0.00  0.00    +0.000 A 
ATOM     16  O   UNL     1     -15.949  -9.032   2.732  0.00  0.00    +0.000 OA
ATOM     17  C   UNL     1     -16.448  -7.020   4.022  0.00  0.00    +0.000 A 
ENDBRANCH   9  10
ENDBRANCH   7   8
BRANCH   1  18
ATOM     18  O   UNL     1     -19.214  -1.817   6.656  0.00  0.00    +0.000 OA
BRANCH  18  19
ATOM     19  C   UNL     1     -19.620  -0.428   7.166  0.00  0.00    +0.000 C 
BRANCH  19  20
ATOM     20  C   UNL     1     -20.883  -0.241   6.134  0.00  0.00    +0.000 C 
BRANCH  20  21
ATOM     21  O   UNL     1     -22.068  -0.514   6.713  0.00  0.00    +0.000 OA
BRANCH  21  22
ATOM     22  C   UNL     1     -23.009  -1.434   6.280  0.00  0.00    +0.000 C 
ATOM     23  O   UNL     1     -22.803  -1.912   5.141  0.00  0.00    +0.000 OA
BRANCH  22  25
ATOM     24  C   UNL     1     -23.883  -3.037   7.582  0.00  0.00    +0.000 C 
ATOM     25  C   UNL     1     -23.884  -2.010   7.279  0.00  0.00    +0.000 C 
ENDBRANCH  22  25
ENDBRANCH  21  22
ENDBRANCH  20  21
ENDBRANCH  19  20
BRANCH  19  26
ATOM     26  C   UNL     1     -18.506   0.299   6.189  0.00  0.00    +0.000 C 
BRANCH  26  27
ATOM     27  O   UNL     1     -17.397   0.539   7.044  0.00  0.00    +0.000 OA
BRANCH  27  28
ATOM     28  C   UNL     1     -16.122   0.081   6.710  0.00  0.00    +0.000 C 
ATOM     29  O   UNL     1     -16.043  -1.156   6.452  0.00  0.00    +0.000 OA
BRANCH  28  30
ATOM     30  C   UNL     1     -14.985   0.993   6.530  0.00  0.00    +0.000 C 
ATOM     31  C   UNL     1     -14.383   0.916   5.341  0.00  0.00    +0.000 C 
ATOM     32  C   UNL     1     -15.203   2.397   7.008  0.00  0.00    +0.000 C 
ENDBRANCH  28  30
ENDBRANCH  27  28
ENDBRANCH  26  27
ENDBRANCH  19  26
ENDBRANCH  18  19
ENDBRANCH   1  18
TORSDOF 12
ENDMDL
MODEL 3
REMARK VINA RESULT:      -6.9     20.314     24.195
REMARK  Name = 
REMARK  12 active torsions:
REMARK  status: ('A' for Active; 'I' for Inactive)
REMARK    1  A    between atoms: C_2  and  C_3
REMARK    2  A    between atoms: C_3  and  O_5
REMARK    3  A    between atoms: O_5  and  C_6
REMARK    4  A    between atoms: C_6  and  C_7
REMARK    5  A    between atoms: C_7  and  C_8
REMARK    6  A    between atoms: C_7  and  O_15
REMARK    7  A    between atoms: C_8  and  O_9
REMARK    8  A    between atoms: O_9  and  C_10
REMARK    9  A    between atoms: C_10  and  C_12
REMARK   10  A    between atoms: O_15  and  C_16
REMARK   11  A    between atoms: C_22  and  C_23
REMARK   12  A    between atoms: C_24  and  C_25
REMARK                            x       y       z     vdW  Elec       q    Type
REMARK                         _______ _______ _______ _____ _____    ______ ____
ROOT
ATOM      1  C   UNL     1     -28.261  10.186 -10.220  0.00  0.00    +0.000 A 
ATOM      2  C   UNL     1     -27.516  11.248  -9.705  0.00  0.00    +0.000 A 
ATOM      3  C   UNL     1     -27.481  12.461 -10.385  0.00  0.00    +0.000 A 
ATOM      4  O   UNL     1     -26.417  13.301 -10.081  0.00  0.00    +0.000 OA
ATOM      5  C   UNL     1     -28.094  12.507 -11.633  0.00  0.00    +0.000 A 
ATOM      6  C   UNL     1     -28.754  11.388 -12.136  0.00  0.00    +0.000 A 
ATOM      7  C   UNL     1     -28.510  10.127 -11.593  0.00  0.00    +0.000 A 
ENDROOT
BRANCH   7   8
ATOM      8  C   UNL     1     -28.201   8.936 -12.272  0.00  0.00    +0.000 C 
ATOM      9  C   UNL     1     -28.214   7.710 -12.258  0.00  0.00    +0.000 C 
BRANCH   9  10
ATOM     10  C   UNL     1     -29.213   6.669 -12.056  0.00  0.00    +0.000 A 
ATOM     11  C   UNL     1     -28.845   5.338 -11.838  0.00  0.00    +0.000 A 
ATOM     12  C   UNL     1     -29.278   4.648 -10.711  0.00  0.00    +0.000 A 
ATOM     13  O   UNL     1     -28.527   3.668 -10.080  0.00  0.00    +0.000 OA
ATOM     14  C   UNL     1     -30.529   5.006 -10.222  0.00  0.00    +0.000 A 
ATOM     15  C   UNL     1     -31.211   6.067 -10.809  0.00  0.00    +0.000 A 
ATOM     16  O   UNL     1     -32.606   6.115 -10.724  0.00  0.00    +0.000 OA
ATOM     17  C   UNL     1     -30.483   6.971 -11.573  0.00  0.00    +0.000 A 
ENDBRANCH   9  10
ENDBRANCH   7   8
BRANCH   1  18
ATOM     18  O   UNL     1     -28.560   9.146  -9.434  0.00  0.00    +0.000 OA
BRANCH  18  19
ATOM     19  C   UNL     1     -28.837   9.281  -7.931  0.00  0.00    +0.000 C 
BRANCH  19  20
ATOM     20  C   UNL     1     -27.708   8.187  -7.460  0.00  0.00    +0.000 C 
BRANCH  20  21
ATOM     21  O   UNL     1     -26.524   8.758  -7.170  0.00  0.00    +0.000 OA
BRANCH  21  22
ATOM     22  C   UNL     1     -25.302   8.475  -7.758  0.00  0.00    +0.000 C 
ATOM     23  O   UNL     1     -25.263   8.614  -9.003  0.00  0.00    +0.000 OA
BRANCH  22  25
ATOM     24  C   UNL     1     -24.176   8.308  -5.826  0.00  0.00    +0.000 C 
ATOM     25  C   UNL     1     -24.144   8.416  -6.891  0.00  0.00    +0.000 C 
ENDBRANCH  22  25
ENDBRANCH  21  22
ENDBRANCH  20  21
ENDBRANCH  19  20
BRANCH  19  26
ATOM     26  C   UNL     1     -30.081   8.199  -8.023  0.00  0.00    +0.000 C 
BRANCH  26  27
ATOM     27  O   UNL     1     -31.245   8.988  -7.818  0.00  0.00    +0.000 OA
BRANCH  27  28
ATOM     28  C   UNL     1     -32.171   9.180  -8.844  0.00  0.00    +0.000 C 
ATOM     29  O   UNL     1     -33.305   8.654  -8.653  0.00  0.00    +0.000 OA
BRANCH  28  30
ATOM     30  C   UNL     1     -31.893  10.050  -9.994  0.00  0.00    +0.000 C 
ATOM     31  C   UNL     1     -32.679   9.851 -11.055  0.00  0.00    +0.000 C 
ATOM     32  C   UNL     1     -31.669  11.496  -9.669  0.00  0.00    +0.000 C 
ENDBRANCH  28  30
ENDBRANCH  27  28
ENDBRANCH  26  27
ENDBRANCH  19  26
ENDBRANCH  18  19
ENDBRANCH   1  18
TORSDOF 12
ENDMDL
MODEL 4
REMARK VINA RESULT:      -6.8     19.040     21.509
REMARK  Name = 
REMARK  12 active torsions:
REMARK  status: ('A' for Active; 'I' for Inactive)
REMARK    1  A    between atoms: C_2  and  C_3
REMARK    2  A    between atoms: C_3  and  O_5
REMARK    3  A    between atoms: O_5  and  C_6
REMARK    4  A    between atoms: C_6  and  C_7
REMARK    5  A    between atoms: C_7  and  C_8
REMARK    6  A    between atoms: C_7  and  O_15
REMARK    7  A    between atoms: C_8  and  O_9
REMARK    8  A    between atoms: O_9  and  C_10
REMARK    9  A    between atoms: C_10  and  C_12
REMARK   10  A    between atoms: O_15  and  C_16
REMARK   11  A    between atoms: C_22  and  C_23
REMARK   12  A    between atoms: C_24  and  C_25
REMARK                            x       y       z     vdW  Elec       q    Type
REMARK                         _______ _______ _______ _____ _____    ______ ____
ROOT
ATOM      1  C   UNL     1     -33.247  -4.910  -5.150  0.00  0.00    +0.000 A 
ATOM      2  C   UNL     1     -32.097  -5.260  -5.859  0.00  0.00    +0.000 A 
ATOM      3  C   UNL     1     -31.063  -4.340  -5.997  0.00  0.00    +0.000 A 
ATOM      4  O   UNL     1     -30.175  -4.570  -7.041  0.00  0.00    +0.000 OA
ATOM      5  C   UNL     1     -31.293  -3.052  -5.524  0.00  0.00    +0.000 A 
ATOM      6  C   UNL     1     -32.495  -2.734  -4.897  0.00  0.00    +0.000 A 
ATOM      7  C   UNL     1     -33.606  -3.564  -5.051  0.00  0.00    +0.000 A 
ENDROOT
BRANCH   7   8
ATOM      8  C   UNL     1     -34.917  -3.200  -5.404  0.00  0.00    +0.000 C 
ATOM      9  C   UNL     1     -35.724  -3.005  -6.306  0.00  0.00    +0.000 C 
BRANCH   9  10
ATOM     10  C   UNL     1     -36.233  -3.756  -7.445  0.00  0.00    +0.000 A 
ATOM     11  C   UNL     1     -36.056  -5.139  -7.545  0.00  0.00    +0.000 A 
ATOM     12  C   UNL     1     -37.142  -5.993  -7.708  0.00  0.00    +0.000 A 
ATOM     13  O   UNL     1     -37.187  -7.278  -7.190  0.00  0.00    +0.000 OA
ATOM     14  C   UNL     1     -38.218  -5.479  -8.421  0.00  0.00    +0.000 A 
ATOM     15  C   UNL     1     -38.189  -4.151  -8.834  0.00  0.00    +0.000 A 
ATOM     16  O   UNL     1     -38.942  -3.763  -9.947  0.00  0.00    +0.000 OA
ATOM     17  C   UNL     1     -37.306  -3.287  -8.199  0.00  0.00    +0.000 A 
ENDBRANCH   9  10
ENDBRANCH   7   8
BRANCH   1  18
ATOM     18  O   UNL     1     -34.090  -5.866  -4.743  0.00  0.00    +0.000 OA
BRANCH  18  19
ATOM     19  C   UNL     1     -34.434  -6.110  -3.268  0.00  0.00    +0.000 C 
BRANCH  19  20
ATOM     20  C   UNL     1     -33.515  -7.461  -3.111  0.00  0.00    +0.000 C 
BRANCH  20  21
ATOM     21  O   UNL     1     -32.481  -7.287  -2.265  0.00  0.00    +0.000 OA
BRANCH  21  22
ATOM     22  C   UNL     1     -31.187  -6.928  -2.602  0.00  0.00    +0.000 C 
ATOM     23  O   UNL     1     -30.615  -7.691  -3.415  0.00  0.00    +0.000 OA
BRANCH  22  25
ATOM     24  C   UNL     1     -29.915  -5.085  -2.710  0.00  0.00    +0.000 C 
ATOM     25  C   UNL     1     -30.771  -5.575  -2.296  0.00  0.00    +0.000 C 
ENDBRANCH  22  25
ENDBRANCH  21  22
ENDBRANCH  20  21
ENDBRANCH  19  20
BRANCH  19  26
ATOM     26  C   UNL     1     -35.819  -6.906  -3.684  0.00  0.00    +0.000 C 
BRANCH  26  27
ATOM     27  O   UNL     1     -36.674  -5.883  -4.178  0.00  0.00    +0.000 OA
BRANCH  27  28
ATOM     28  C   UNL     1     -37.867  -5.570  -3.526  0.00  0.00    +0.000 C 
ATOM     29  O   UNL     1     -38.286  -6.447  -2.715  0.00  0.00    +0.000 OA
BRANCH  28  30
ATOM     30  C   UNL     1     -38.512  -4.258  -3.664  0.00  0.00    +0.000 C 
ATOM     31  C   UNL     1     -37.821  -3.234  -3.156  0.00  0.00    +0.000 C 
ATOM     32  C   UNL     1     -39.116  -3.974  -5.005  0.00  0.00    +0.000 C 
ENDBRANCH  28  30
ENDBRANCH  27  28
ENDBRANCH  26  27
ENDBRANCH  19  26
ENDBRANCH  18  19
ENDBRANCH   1  18
TORSDOF 12
ENDMDL
MODEL 5
REMARK VINA RESULT:      -6.7     19.441     22.012
REMARK  Name = 
REMARK  12 active torsions:
REMARK  status: ('A' for Active; 'I' for Inactive)
REMARK    1  A    between atoms: C_2  and  C_3
REMARK    2  A    between atoms: C_3  and  O_5
REMARK    3  A    between atoms: O_5  and  C_6
REMARK    4  A    between atoms: C_6  and  C_7
REMARK    5  A    between atoms: C_7  and  C_8
REMARK    6  A    between atoms: C_7  and  O_15
REMARK    7  A    between atoms: C_8  and  O_9
REMARK    8  A    between atoms: O_9  and  C_10
REMARK    9  A    between atoms: C_10  and  C_12
REMARK   10  A    between atoms: O_15  and  C_16
REMARK   11  A    between atoms: C_22  and  C_23
REMARK   12  A    between atoms: C_24  and  C_25
REMARK                            x       y       z     vdW  Elec       q    Type
REMARK                         _______ _______ _______ _____ _____    ______ ____
ROOT
ATOM      1  C   UNL     1     -34.433  -4.354  -5.542  0.00  0.00    +0.000 A 
ATOM      2  C   UNL     1     -33.748  -4.736  -6.697  0.00  0.00    +0.000 A 
ATOM      3  C   UNL     1     -32.595  -4.055  -7.073  0.00  0.00    +0.000 A 
ATOM      4  O   UNL     1     -32.220  -4.177  -8.406  0.00  0.00    +0.000 OA
ATOM      5  C   UNL     1     -32.255  -2.925  -6.336  0.00  0.00    +0.000 A 
ATOM      6  C   UNL     1     -33.024  -2.541  -5.240  0.00  0.00    +0.000 A 
ATOM      7  C   UNL     1     -34.316  -3.041  -5.081  0.00  0.00    +0.000 A 
ENDROOT
BRANCH   7   8
ATOM      8  C   UNL     1     -35.496  -2.325  -4.818  0.00  0.00    +0.000 C 
ATOM      9  C   UNL     1     -36.380  -1.599  -5.259  0.00  0.00    +0.000 C 
BRANCH   9  10
ATOM     10  C   UNL     1     -37.329  -1.646  -6.364  0.00  0.00    +0.000 A 
ATOM     11  C   UNL     1     -37.740  -0.484  -7.022  0.00  0.00    +0.000 A 
ATOM     12  C   UNL     1     -37.597  -0.348  -8.399  0.00  0.00    +0.000 A 
ATOM     13  O   UNL     1     -37.347   0.863  -9.026  0.00  0.00    +0.000 OA
ATOM     14  C   UNL     1     -37.705  -1.520  -9.139  0.00  0.00    +0.000 A 
ATOM     15  C   UNL     1     -37.847  -2.734  -8.475  0.00  0.00    +0.000 A 
ATOM     16  O   UNL     1     -38.467  -3.804  -9.129  0.00  0.00    +0.000 OA
ATOM     17  C   UNL     1     -37.482  -2.795  -7.136  0.00  0.00    +0.000 A 
ENDBRANCH   9  10
ENDBRANCH   7   8
BRANCH   1  18
ATOM     18  O   UNL     1     -35.335  -5.182  -5.005  0.00  0.00    +0.000 OA
BRANCH  18  19
ATOM     19  C   UNL     1     -35.252  -5.693  -3.560  0.00  0.00    +0.000 C 
BRANCH  19  20
ATOM     20  C   UNL     1     -34.225  -6.931  -3.886  0.00  0.00    +0.000 C 
BRANCH  20  21
ATOM     21  O   UNL     1     -33.069  -6.838  -3.200  0.00  0.00    +0.000 OA
BRANCH  21  22
ATOM     22  C   UNL     1     -31.949  -6.106  -3.559  0.00  0.00    +0.000 C 
ATOM     23  O   UNL     1     -31.440  -6.416  -4.661  0.00  0.00    +0.000 OA
BRANCH  22  25
ATOM     24  C   UNL     1     -31.852  -4.720  -1.799  0.00  0.00    +0.000 C 
ATOM     25  C   UNL     1     -31.708  -4.867  -2.850  0.00  0.00    +0.000 C 
ENDBRANCH  22  25
ENDBRANCH  21  22
ENDBRANCH  20  21
ENDBRANCH  19  20
BRANCH  19  26
ATOM     26  C   UNL     1     -36.633  -6.576  -3.752  0.00  0.00    +0.000 C 
BRANCH  26  27
ATOM     27  O   UNL     1     -37.582  -5.637  -4.242  0.00  0.00    +0.000 OA
BRANCH  27  28
ATOM     28  C   UNL     1     -38.472  -5.001  -3.376  0.00  0.00    +0.000 C 
ATOM     29  O   UNL     1     -38.882  -5.707  -2.409  0.00  0.00    +0.000 OA
BRANCH  28  30
ATOM     30  C   UNL     1     -38.795  -3.574  -3.498  0.00  0.00    +0.000 C 
ATOM     31  C   UNL     1     -39.989  -3.310  -4.036  0.00  0.00    +0.000 C 
ATOM     32  C   UNL     1     -38.474  -2.735  -2.299  0.00  0.00    +0.000 C 
ENDBRANCH  28  30
ENDBRANCH  27  28
ENDBRANCH  26  27
ENDBRANCH  19  26
ENDBRANCH  18  19
ENDBRANCH   1  18
TORSDOF 12
ENDMDL
MODEL 6
REMARK VINA RESULT:      -6.5     18.313     20.751
REMARK  Name = 
REMARK  12 active torsions:
REMARK  status: ('A' for Active; 'I' for Inactive)
REMARK    1  A    between atoms: C_2  and  C_3
REMARK    2  A    between atoms: C_3  and  O_5
REMARK    3  A    between atoms: O_5  and  C_6
REMARK    4  A    between atoms: C_6  and  C_7
REMARK    5  A    between atoms: C_7  and  C_8
REMARK    6  A    between atoms: C_7  and  O_15
REMARK    7  A    between atoms: C_8  and  O_9
REMARK    8  A    between atoms: O_9  and  C_10
REMARK    9  A    between atoms: C_10  and  C_12
REMARK   10  A    between atoms: O_15  and  C_16
REMARK   11  A    between atoms: C_22  and  C_23
REMARK   12  A    between atoms: C_24  and  C_25
REMARK                            x       y       z     vdW  Elec       q    Type
REMARK                         _______ _______ _______ _____ _____    ______ ____
ROOT
ATOM      1  C   UNL     1     -36.022  -4.783  -5.062  0.00  0.00    +0.000 A 
ATOM      2  C   UNL     1     -36.283  -3.807  -4.099  0.00  0.00    +0.000 A 
ATOM      3  C   UNL     1     -37.107  -2.731  -4.411  0.00  0.00    +0.000 A 
ATOM      4  O   UNL     1     -36.980  -1.608  -3.601  0.00  0.00    +0.000 OA
ATOM      5  C   UNL     1     -37.526  -2.615  -5.733  0.00  0.00    +0.000 A 
ATOM      6  C   UNL     1     -37.166  -3.577  -6.674  0.00  0.00    +0.000 A 
ATOM      7  C   UNL     1     -36.109  -4.449  -6.415  0.00  0.00    +0.000 A 
ENDROOT
BRANCH   7   8
ATOM      8  C   UNL     1     -35.017  -4.757  -7.244  0.00  0.00    +0.000 C 
ATOM      9  C   UNL     1     -33.981  -4.367  -7.771  0.00  0.00    +0.000 C 
BRANCH   9  10
ATOM     10  C   UNL     1     -32.738  -3.752  -7.324  0.00  0.00    +0.000 A 
ATOM     11  C   UNL     1     -32.716  -2.836  -6.269  0.00  0.00    +0.000 A 
ATOM     12  C   UNL     1     -31.906  -3.039  -5.156  0.00  0.00    +0.000 A 
ATOM     13  O   UNL     1     -32.249  -2.630  -3.877  0.00  0.00    +0.000 OA
ATOM     14  C   UNL     1     -30.709  -3.705  -5.390  0.00  0.00    +0.000 A 
ATOM     15  C   UNL     1     -30.442  -4.200  -6.662  0.00  0.00    +0.000 A 
ATOM     16  O   UNL     1     -29.114  -4.380  -7.063  0.00  0.00    +0.000 OA
ATOM     17  C   UNL     1     -31.509  -4.372  -7.535  0.00  0.00    +0.000 A 
ENDBRANCH   9  10
ENDBRANCH   7   8
BRANCH   1  18
ATOM     18  O   UNL     1     -35.509  -5.960  -4.687  0.00  0.00    +0.000 OA
BRANCH  18  19
ATOM     19  C   UNL     1     -34.036  -6.151  -4.303  0.00  0.00    +0.000 C 
BRANCH  19  20
ATOM     20  C   UNL     1     -33.788  -7.460  -5.261  0.00  0.00    +0.000 C 
BRANCH  20  21
ATOM     21  O   UNL     1     -34.924  -7.911  -5.825  0.00  0.00    +0.000 OA
BRANCH  21  22
ATOM     22  C   UNL     1     -35.236  -9.227  -6.122  0.00  0.00    +0.000 C 
ATOM     23  O   UNL     1     -35.594  -9.925  -5.144  0.00  0.00    +0.000 OA
BRANCH  22  25
ATOM     24  C   UNL     1     -36.437  -9.673  -7.962  0.00  0.00    +0.000 C 
ATOM     25  C   UNL     1     -35.473  -9.557  -7.512  0.00  0.00    +0.000 C 
ENDBRANCH  22  25
ENDBRANCH  21  22
ENDBRANCH  20  21
ENDBRANCH  19  20
BRANCH  19  26
ATOM     26  C   UNL     1     -34.458  -7.012  -2.960  0.00  0.00    +0.000 C 
BRANCH  26  27
ATOM     27  O   UNL     1     -33.234  -7.579  -2.510  0.00  0.00    +0.000 OA
BRANCH  27  28
ATOM     28  C   UNL     1     -32.312  -6.816  -1.792  0.00  0.00    +0.000 C 
ATOM     29  O   UNL     1     -32.713  -6.409  -0.663  0.00  0.00    +0.000 OA
BRANCH  28  30
ATOM     30  C   UNL     1     -30.931  -6.623  -2.252  0.00  0.00    +0.000 C 
ATOM     31  C   UNL     1     -30.622  -7.252  -3.389  0.00  0.00    +0.000 C 
ATOM     32  C   UNL     1     -30.417  -5.218  -2.178  0.00  0.00    +0.000 C 
ENDBRANCH  28  30
ENDBRANCH  27  28
ENDBRANCH  26  27
ENDBRANCH  19  26
ENDBRANCH  18  19
ENDBRANCH   1  18
TORSDOF 12
ENDMDL
MODEL 7
REMARK VINA RESULT:      -6.5     17.299     22.183
REMARK  Name = 
REMARK  12 active torsions:
REMARK  status: ('A' for Active; 'I' for Inactive)
REMARK    1  A    between atoms: C_2  and  C_3
REMARK    2  A    between atoms: C_3  and  O_5
REMARK    3  A    between atoms: O_5  and  C_6
REMARK    4  A    between atoms: C_6  and  C_7
REMARK    5  A    between atoms: C_7  and  C_8
REMARK    6  A    between atoms: C_7  and  O_15
REMARK    7  A    between atoms: C_8  and  O_9
REMARK    8  A    between atoms: O_9  and  C_10
REMARK    9  A    between atoms: C_10  and  C_12
REMARK   10  A    between atoms: O_15  and  C_16
REMARK   11  A    between atoms: C_22  and  C_23
REMARK   12  A    between atoms: C_24  and  C_25
REMARK                            x       y       z     vdW  Elec       q    Type
REMARK                         _______ _______ _______ _____ _____    ______ ____
ROOT
ATOM      1  C   UNL     1     -14.655  17.675   0.857  0.00  0.00    +0.000 A 
ATOM      2  C   UNL     1     -14.230  18.778   1.599  0.00  0.00    +0.000 A 
ATOM      3  C   UNL     1     -12.962  18.779   2.171  0.00  0.00    +0.000 A 
ATOM      4  O   UNL     1     -12.767  19.667   3.223  0.00  0.00    +0.000 OA
ATOM      5  C   UNL     1     -12.224  17.604   2.081  0.00  0.00    +0.000 A 
ATOM      6  C   UNL     1     -12.733  16.502   1.397  0.00  0.00    +0.000 A 
ATOM      7  C   UNL     1     -14.096  16.422   1.115  0.00  0.00    +0.000 A 
ENDROOT
BRANCH   7   8
ATOM      8  C   UNL     1     -14.967  15.344   1.349  0.00  0.00    +0.000 C 
ATOM      9  C   UNL     1     -15.087  14.138   1.533  0.00  0.00    +0.000 C 
BRANCH   9  10
ATOM     10  C   UNL     1     -14.533  13.152   2.451  0.00  0.00    +0.000 A 
ATOM     11  C   UNL     1     -15.245  12.001   2.802  0.00  0.00    +0.000 A 
ATOM     12  C   UNL     1     -14.701  10.734   2.615  0.00  0.00    +0.000 A 
ATOM     13  O   UNL     1     -15.459   9.616   2.305  0.00  0.00    +0.000 OA
ATOM     14  C   UNL     1     -13.320  10.641   2.744  0.00  0.00    +0.000 A 
ATOM     15  C   UNL     1     -12.576  11.798   2.947  0.00  0.00    +0.000 A 
ATOM     16  O   UNL     1     -11.334  11.710   3.587  0.00  0.00    +0.000 OA
ATOM     17  C   UNL     1     -13.157  13.017   2.623  0.00  0.00    +0.000 A 
ENDBRANCH   9  10
ENDBRANCH   7   8
BRANCH   1  18
ATOM     18  O   UNL     1     -15.716  17.790   0.051  0.00  0.00    +0.000 OA
BRANCH  18  19
ATOM     19  C   UNL     1     -15.711  17.338  -1.415  0.00  0.00    +0.000 C 
BRANCH  19  20
ATOM     20  C   UNL     1     -14.995  18.694  -1.999  0.00  0.00    +0.000 C 
BRANCH  20  21
ATOM     21  O   UNL     1     -14.138  18.435  -3.005  0.00  0.00    +0.000 OA
BRANCH  21  22
ATOM     22  C   UNL     1     -14.345  18.679  -4.353  0.00  0.00    +0.000 C 
ATOM     23  O   UNL     1     -14.073  19.842  -4.732  0.00  0.00    +0.000 OA
BRANCH  22  25
ATOM     24  C   UNL     1     -13.743  17.185  -5.913  0.00  0.00    +0.000 C 
ATOM     25  C   UNL     1     -14.485  17.531  -5.223  0.00  0.00    +0.000 C 
ENDBRANCH  22  25
ENDBRANCH  21  22
ENDBRANCH  20  21
ENDBRANCH  19  20
BRANCH  19  26
ATOM     26  C   UNL     1     -17.259  17.871  -1.625  0.00  0.00    +0.000 C 
BRANCH  26  27
ATOM     27  O   UNL     1     -17.928  17.476  -0.435  0.00  0.00    +0.000 OA
BRANCH  27  28
ATOM     28  C   UNL     1     -19.288  17.733  -0.258  0.00  0.00    +0.000 C 
ATOM     29  O   UNL     1     -20.055  17.176  -1.097  0.00  0.00    +0.000 OA
BRANCH  28  30
ATOM     30  C   UNL     1     -19.799  18.476   0.900  0.00  0.00    +0.000 C 
ATOM     31  C   UNL     1     -19.026  19.486   1.308  0.00  0.00    +0.000 C 
ATOM     32  C   UNL     1     -21.259  18.811   0.858  0.00  0.00    +0.000 C 
ENDBRANCH  28  30
ENDBRANCH  27  28
ENDBRANCH  26  27
ENDBRANCH  19  26
ENDBRANCH  18  19
ENDBRANCH   1  18
TORSDOF 12
ENDMDL
MODEL 8
REMARK VINA RESULT:      -6.4     20.405     24.326
REMARK  Name = 
REMARK  12 active torsions:
REMARK  status: ('A' for Active; 'I' for Inactive)
REMARK    1  A    between atoms: C_2  and  C_3
REMARK    2  A    between atoms: C_3  and  O_5
REMARK    3  A    between atoms: O_5  and  C_6
REMARK    4  A    between atoms: C_6  and  C_7
REMARK    5  A    between atoms: C_7  and  C_8
REMARK    6  A    between atoms: C_7  and  O_15
REMARK    7  A    between atoms: C_8  and  O_9
REMARK    8  A    between atoms: O_9  and  C_10
REMARK    9  A    between atoms: C_10  and  C_12
REMARK   10  A    between atoms: O_15  and  C_16
REMARK   11  A    between atoms: C_22  and  C_23
REMARK   12  A    between atoms: C_24  and  C_25
REMARK                            x       y       z     vdW  Elec       q    Type
REMARK                         _______ _______ _______ _____ _____    ______ ____
ROOT
ATOM      1  C   UNL     1     -26.890   9.774  -9.195  0.00  0.00    +0.000 A 
ATOM      2  C   UNL     1     -27.011   9.575  -7.819  0.00  0.00    +0.000 A 
ATOM      3  C   UNL     1     -26.570   8.384  -7.252  0.00  0.00    +0.000 A 
ATOM      4  O   UNL     1     -27.098   8.069  -6.005  0.00  0.00    +0.000 OA
ATOM      5  C   UNL     1     -26.146   7.385  -8.122  0.00  0.00    +0.000 A 
ATOM      6  C   UNL     1     -26.124   7.610  -9.496  0.00  0.00    +0.000 A 
ATOM      7  C   UNL     1     -26.850   8.667 -10.045  0.00  0.00    +0.000 A 
ENDROOT
BRANCH   7   8
ATOM      8  C   UNL     1     -27.737   8.636 -11.134  0.00  0.00    +0.000 C 
ATOM      9  C   UNL     1     -28.354   7.948 -11.940  0.00  0.00    +0.000 C 
BRANCH   9  10
ATOM     10  C   UNL     1     -29.291   6.834 -11.875  0.00  0.00    +0.000 A 
ATOM     11  C   UNL     1     -28.847   5.514 -11.756  0.00  0.00    +0.000 A 
ATOM     12  C   UNL     1     -29.280   4.701 -10.714  0.00  0.00    +0.000 A 
ATOM     13  O   UNL     1     -28.494   3.717 -10.135  0.00  0.00    +0.000 OA
ATOM     14  C   UNL     1     -30.571   4.937 -10.255  0.00  0.00    +0.000 A 
ATOM     15  C   UNL     1     -31.295   6.002 -10.780  0.00  0.00    +0.000 A 
ATOM     16  O   UNL     1     -32.694   5.957 -10.757  0.00  0.00    +0.000 OA
ATOM     17  C   UNL     1     -30.597   7.014 -11.428  0.00  0.00    +0.000 A 
ENDBRANCH   9  10
ENDBRANCH   7   8
BRANCH   1  18
ATOM     18  O   UNL     1     -27.008  11.008  -9.697  0.00  0.00    +0.000 OA
BRANCH  18  19
ATOM     19  C   UNL     1     -27.529  12.200  -8.884  0.00  0.00    +0.000 C 
BRANCH  19  20
ATOM     20  C   UNL     1     -28.982  12.289  -9.640  0.00  0.00    +0.000 C 
BRANCH  20  21
ATOM     21  O   UNL     1     -29.921  11.528  -9.047  0.00  0.00    +0.000 OA
BRANCH  21  22
ATOM     22  C   UNL     1     -30.669  10.522  -9.638  0.00  0.00    +0.000 C 
ATOM     23  O   UNL     1     -30.661  10.519 -10.891  0.00  0.00    +0.000 OA
BRANCH  22  25
ATOM     24  C   UNL     1     -30.384   8.786  -8.248  0.00  0.00    +0.000 C 
ATOM     25  C   UNL     1     -31.058   9.405  -8.805  0.00  0.00    +0.000 C 
ENDBRANCH  22  25
ENDBRANCH  21  22
ENDBRANCH  20  21
ENDBRANCH  19  20
BRANCH  19  26
ATOM     26  C   UNL     1     -26.762  13.267  -9.884  0.00  0.00    +0.000 C 
BRANCH  26  27
ATOM     27  O   UNL     1     -25.649  13.718  -9.124  0.00  0.00    +0.000 OA
BRANCH  27  28
ATOM     28  C   UNL     1     -25.313  15.072  -9.081  0.00  0.00    +0.000 C 
ATOM     29  O   UNL     1     -26.285  15.873  -9.194  0.00  0.00    +0.000 OA
BRANCH  28  30
ATOM     30  C   UNL     1     -23.950  15.529  -8.782  0.00  0.00    +0.000 C 
ATOM     31  C   UNL     1     -23.678  16.780  -9.164  0.00  0.00    +0.000 C 
ATOM     32  C   UNL     1     -23.442  15.192  -7.413  0.00  0.00    +0.000 C 
ENDBRANCH  28  30
ENDBRANCH  27  28
ENDBRANCH  26  27
ENDBRANCH  19  26
ENDBRANCH  18  19
ENDBRANCH   1  18
TORSDOF 12
ENDMDL
MODEL 9
REMARK VINA RESULT:      -6.4      3.135      7.340
REMARK  Name = 
REMARK  12 active torsions:
REMARK  status: ('A' for Active; 'I' for Inactive)
REMARK    1  A    between atoms: C_2  and  C_3
REMARK    2  A    between atoms: C_3  and  O_5
REMARK    3  A    between atoms: O_5  and  C_6
REMARK    4  A    between atoms: C_6  and  C_7
REMARK    5  A    between atoms: C_7  and  C_8
REMARK    6  A    between atoms: C_7  and  O_15
REMARK    7  A    between atoms: C_8  and  O_9
REMARK    8  A    between atoms: O_9  and  C_10
REMARK    9  A    between atoms: C_10  and  C_12
REMARK   10  A    between atoms: O_15  and  C_16
REMARK   11  A    between atoms: C_22  and  C_23
REMARK   12  A    between atoms: C_24  and  C_25
REMARK                            x       y       z     vdW  Elec       q    Type
REMARK                         _______ _______ _______ _____ _____    ______ ____
ROOT
ATOM      1  C   UNL     1     -22.304  -2.616   8.081  0.00  0.00    +0.000 A 
ATOM      2  C   UNL     1     -22.548  -1.985   6.860  0.00  0.00    +0.000 A 
ATOM      3  C   UNL     1     -23.843  -1.936   6.354  0.00  0.00    +0.000 A 
ATOM      4  O   UNL     1     -23.957  -1.703   4.988  0.00  0.00    +0.000 OA
ATOM      5  C   UNL     1     -24.820  -2.648   7.042  0.00  0.00    +0.000 A 
ATOM      6  C   UNL     1     -24.502  -3.330   8.214  0.00  0.00    +0.000 A 
ATOM      7  C   UNL     1     -23.172  -3.618   8.518  0.00  0.00    +0.000 A 
ENDROOT
BRANCH   7   8
ATOM      8  C   UNL     1     -22.619  -4.851   8.905  0.00  0.00    +0.000 C 
ATOM      9  C   UNL     1     -22.782  -6.060   9.027  0.00  0.00    +0.000 C 
BRANCH   9  10
ATOM     10  C   UNL     1     -23.192  -7.160   8.165  0.00  0.00    +0.000 A 
ATOM     11  C   UNL     1     -22.464  -8.351   8.106  0.00  0.00    +0.000 A 
ATOM     12  C   UNL     1     -23.069  -9.578   8.360  0.00  0.00    +0.000 A 
ATOM     13  O   UNL     1     -22.412 -10.646   8.950  0.00  0.00    +0.000 OA
ATOM     14  C   UNL     1     -24.407  -9.681   7.998  0.00  0.00    +0.000 A 
ATOM     15  C   UNL     1     -25.069  -8.560   7.511  0.00  0.00    +0.000 A 
ATOM     16  O   UNL     1     -26.179  -8.728   6.675  0.00  0.00    +0.000 OA
ATOM     17  C   UNL     1     -24.518  -7.310   7.767  0.00  0.00    +0.000 A 
ENDBRANCH   9  10
ENDBRANCH   7   8
BRANCH   1  18
ATOM     18  O   UNL     1     -21.150  -2.394   8.720  0.00  0.00    +0.000 OA
BRANCH  18  19
ATOM     19  C   UNL     1     -19.797  -2.295   8.002  0.00  0.00    +0.000 C 
BRANCH  19  20
ATOM     20  C   UNL     1     -18.935  -3.044   9.180  0.00  0.00    +0.000 C 
BRANCH  20  21
ATOM     21  O   UNL     1     -18.065  -3.948   8.690  0.00  0.00    +0.000 OA
BRANCH  21  22
ATOM     22  C   UNL     1     -18.342  -4.959   7.784  0.00  0.00    +0.000 C 
ATOM     23  O   UNL     1     -17.608  -4.983   6.770  0.00  0.00    +0.000 OA
BRANCH  22  25
ATOM     24  C   UNL     1     -19.041  -7.083   7.952  0.00  0.00    +0.000 C 
ATOM     25  C   UNL     1     -19.159  -6.061   8.248  0.00  0.00    +0.000 C 
ENDBRANCH  22  25
ENDBRANCH  21  22
ENDBRANCH  20  21
ENDBRANCH  19  20
BRANCH  19  26
ATOM     26  C   UNL     1     -19.561  -0.766   8.578  0.00  0.00    +0.000 C 
BRANCH  26  27
ATOM     27  O   UNL     1     -18.151  -0.592   8.537  0.00  0.00    +0.000 OA
BRANCH  27  28
ATOM     28  C   UNL     1     -17.549   0.141   7.513  0.00  0.00    +0.000 C 
ATOM     29  O   UNL     1     -17.951   1.335   7.396  0.00  0.00    +0.000 OA
BRANCH  28  30
ATOM     30  C   UNL     1     -16.429  -0.391   6.726  0.00  0.00    +0.000 C 
ATOM     31  C   UNL     1     -16.605  -1.632   6.263  0.00  0.00    +0.000 C 
ATOM     32  C   UNL     1     -15.842   0.552   5.721  0.00  0.00    +0.000 C 
ENDBRANCH  28  30
ENDBRANCH  27  28
ENDBRANCH  26  27
ENDBRANCH  19  26
ENDBRANCH  18  19
ENDBRANCH   1  18
TORSDOF 12
ENDMDL
MODEL 10
REMARK VINA RESULT:      -6.3     15.628     19.620
REMARK  Name = 
REMARK  12 active torsions:
REMARK  status: ('A' for Active; 'I' for Inactive)
REMARK    1  A    between atoms: C_2  and  C_3
REMARK    2  A    between atoms: C_3  and  O_5
REMARK    3  A    between atoms: O_5  and  C_6
REMARK    4  A    between atoms: C_6  and  C_7
REMARK    5  A    between atoms: C_7  and  C_8
REMARK    6  A    between atoms: C_7  and  O_15
REMARK    7  A    between atoms: C_8  and  O_9
REMARK    8  A    between atoms: O_9  and  C_10
REMARK    9  A    between atoms: C_10  and  C_12
REMARK   10  A    between atoms: O_15  and  C_16
REMARK   11  A    between atoms: C_22  and  C_23
REMARK   12  A    between atoms: C_24  and  C_25
REMARK                            x       y       z     vdW  Elec       q    Type
REMARK                         _______ _______ _______ _____ _____    ______ ____
ROOT
ATOM      1  C   UNL     1     -24.796  10.300  -6.071  0.00  0.00    +0.000 A 
ATOM      2  C   UNL     1     -25.477  11.512  -5.947  0.00  0.00    +0.000 A 
ATOM      3  C   UNL     1     -24.980  12.502  -5.106  0.00  0.00    +0.000 A 
ATOM      4  O   UNL     1     -25.890  13.469  -4.694  0.00  0.00    +0.000 OA
ATOM      5  C   UNL     1     -23.882  12.172  -4.318  0.00  0.00    +0.000 A 
ATOM      6  C   UNL     1     -23.291  10.915  -4.423  0.00  0.00    +0.000 A 
ATOM      7  C   UNL     1     -23.982   9.864  -5.024  0.00  0.00    +0.000 A 
ENDROOT
BRANCH   7   8
ATOM      8  C   UNL     1     -24.176   8.561  -4.533  0.00  0.00    +0.000 C 
ATOM      9  C   UNL     1     -23.815   7.693  -3.747  0.00  0.00    +0.000 C 
BRANCH   9  10
ATOM     10  C   UNL     1     -23.609   7.594  -2.308  0.00  0.00    +0.000 A 
ATOM     11  C   UNL     1     -23.697   6.369  -1.641  0.00  0.00    +0.000 A 
ATOM     12  C   UNL     1     -22.643   5.895  -0.866  0.00  0.00    +0.000 A 
ATOM     13  O   UNL     1     -22.344   4.549  -0.725  0.00  0.00    +0.000 OA
ATOM     14  C   UNL     1     -21.871   6.862  -0.233  0.00  0.00    +0.000 A 
ATOM     15  C   UNL     1     -22.127   8.206  -0.481  0.00  0.00    +0.000 A 
ATOM     16  O   UNL     1     -21.771   9.159   0.480  0.00  0.00    +0.000 OA
ATOM     17  C   UNL     1     -22.848   8.537  -1.621  0.00  0.00    +0.000 A 
ENDBRANCH   9  10
ENDBRANCH   7   8
BRANCH   1  18
ATOM     18  O   UNL     1     -25.077   9.486  -7.094  0.00  0.00    +0.000 OA
BRANCH  18  19
ATOM     19  C   UNL     1     -26.467   9.394  -7.738  0.00  0.00    +0.000 C 
BRANCH  19  20
ATOM     20  C   UNL     1     -27.001   8.163  -6.792  0.00  0.00    +0.000 C 
BRANCH  20  21
ATOM     21  O   UNL     1     -27.907   8.567  -5.881  0.00  0.00    +0.000 OA
BRANCH  21  22
ATOM     22  C   UNL     1     -27.808   8.447  -4.504  0.00  0.00    +0.000 C 
ATOM     23  O   UNL     1     -27.510   7.304  -4.088  0.00  0.00    +0.000 OA
BRANCH  22  25
ATOM     24  C   UNL     1     -27.123   9.780  -2.837  0.00  0.00    +0.000 C 
ATOM     25  C   UNL     1     -27.691   9.670  -3.738  0.00  0.00    +0.000 C 
ENDBRANCH  22  25
ENDBRANCH  21  22
ENDBRANCH  20  21
ENDBRANCH  19  20
BRANCH  19  26
ATOM     26  C   UNL     1     -25.887   8.428  -8.944  0.00  0.00    +0.000 C 
BRANCH  26  27
ATOM     27  O   UNL     1     -26.994   8.259  -9.819  0.00  0.00    +0.000 OA
BRANCH  27  28
ATOM     28  C   UNL     1     -27.119   7.111 -10.603  0.00  0.00    +0.000 C 
ATOM     29  O   UNL     1     -26.027   6.577 -10.954  0.00  0.00    +0.000 OA
BRANCH  28  30
ATOM     30  C   UNL     1     -28.420   6.490 -10.878  0.00  0.00    +0.000 C 
ATOM     31  C   UNL     1     -29.034   6.930 -11.980  0.00  0.00    +0.000 C 
ATOM     32  C   UNL     1     -28.474   5.002 -10.709  0.00  0.00    +0.000 C 
ENDBRANCH  28  30
ENDBRANCH  27  28
ENDBRANCH  26  27
ENDBRANCH  19  26
ENDBRANCH  18  19
ENDBRANCH   1  18
TORSDOF 12
ENDMDL
