MODEL 1
REMARK VINA RESULT:      -5.6      0.000      0.000
REMARK  Name = 
REMARK  10 active torsions:
REMARK  status: ('A' for Active; 'I' for Inactive)
REMARK    1  A    between atoms: O_2  and  C_3
REMARK    2  A    between atoms: C_6  and  C_7
REMARK    3  A    between atoms: C_8  and  C_9
REMARK    4  A    between atoms: C_11  and  O_12
REMARK    5  A    between atoms: C_14  and  O_15
REMARK    6  A    between atoms: C_17  and  O_18
REMARK    7  A    between atoms: C_21  and  O_22
REMARK    8  A    between atoms: O_22  and  P_23
REMARK    9  A    between atoms: C_27  and  O_28
REMARK   10  A    between atoms: O_28  and  P_29
REMARK                            x       y       z     vdW  Elec       q    Type
REMARK                         _______ _______ _______ _____ _____    ______ ____
ROOT
ATOM      1  C   UNL     1     -21.577  -7.843   7.551  0.00  0.00    +0.000 A 
ATOM      2  C   UNL     1     -22.583  -7.420   8.410  0.00  0.00    +0.000 A 
ATOM      3  C   UNL     1     -22.270  -6.522   9.422  0.00  0.00    +0.000 A 
ATOM      4  C   UNL     1     -20.973  -6.021   9.446  0.00  0.00    +0.000 A 
ATOM      5  C   UNL     1     -19.945  -6.807   8.938  0.00  0.00    +0.000 A 
ATOM      6  C   UNL     1     -20.244  -7.535   7.792  0.00  0.00    +0.000 A 
ENDROOT
BRANCH   1   8
ATOM      7  C   UNL     1     -23.285  -9.029   6.366  0.00  0.00    +0.000 C 
ATOM      8  O   UNL     1     -21.907  -8.883   6.685  0.00  0.00    +0.000 OA
ENDBRANCH   1   8
BRANCH   4   9
ATOM      9  C   UNL     1     -20.583  -4.964  10.374  0.00  0.00    +0.000 C 
ATOM     10  C   UNL     1     -20.224  -3.788   9.903  0.00  0.00    +0.000 C 
BRANCH  10  11
ATOM     11  C   UNL     1     -20.414  -3.396   8.501  0.00  0.00    +0.000 A 
ATOM     12  C   UNL     1     -21.580  -2.687   8.240  0.00  0.00    +0.000 A 
ATOM     13  C   UNL     1     -21.645  -1.844   7.138  0.00  0.00    +0.000 A 
ATOM     14  C   UNL     1     -20.485  -1.311   6.602  0.00  0.00    +0.000 A 
ATOM     15  C   UNL     1     -19.326  -2.033   6.810  0.00  0.00    +0.000 A 
ATOM     16  C   UNL     1     -19.308  -3.047   7.746  0.00  0.00    +0.000 A 
BRANCH  13  17
ATOM     17  O   UNL     1     -22.835  -1.232   6.779  0.00  0.00    +0.000 OA
ATOM     18  C   UNL     1     -24.066  -1.831   7.150  0.00  0.00    +0.000 C 
ENDBRANCH  13  17
BRANCH  14  19
ATOM     19  O   UNL     1     -20.386   0.036   6.238  0.00  0.00    +0.000 OA
ATOM     20  C   UNL     1     -20.356   1.077   7.197  0.00  0.00    +0.000 C 
ENDBRANCH  14  19
BRANCH  15  21
ATOM     21  O   UNL     1     -18.154  -1.498   6.269  0.00  0.00    +0.000 OA
ATOM     22  C   UNL     1     -17.175  -0.839   7.040  0.00  0.00    +0.000 C 
ENDBRANCH  15  21
ENDBRANCH  10  11
ENDBRANCH   4   9
BRANCH   5  23
ATOM     23  O   UNL     1     -18.736  -6.978   9.621  0.00  0.00    +0.000 OA
BRANCH  23  24
ATOM     24  P   UNL     1     -18.572  -8.457  10.491  0.00  0.00    +0.000 P 
ATOM     25  O   UNL     1     -17.906  -8.118  11.796  0.00  0.00    +0.000 OA
ATOM     26  O   UNL     1     -20.082  -9.129  10.855  0.00  0.00    +0.000 OA
ATOM     27  O   UNL     1     -17.593  -9.556   9.645  0.00  0.00    +0.000 OA
ENDBRANCH  23  24
ENDBRANCH   5  23
BRANCH   6  28
ATOM     28  O   UNL     1     -19.250  -8.307   7.184  0.00  0.00    +0.000 OA
BRANCH  28  29
ATOM     29  P   UNL     1     -18.298  -7.738   5.894  0.00  0.00    +0.000 P 
ATOM     30  O   UNL     1     -19.064  -7.828   4.583  0.00  0.00    +0.000 OA
ATOM     31  O   UNL     1     -17.881  -6.101   6.090  0.00  0.00    +0.000 OA
ATOM     32  O   UNL     1     -16.879  -8.663   5.768  0.00  0.00    +0.000 OA
ENDBRANCH  28  29
ENDBRANCH   6  28
TORSDOF 10
ENDMDL
MODEL 2
REMARK VINA RESULT:      -5.6     17.327     20.248
REMARK  Name = 
REMARK  10 active torsions:
REMARK  status: ('A' for Active; 'I' for Inactive)
REMARK    1  A    between atoms: O_2  and  C_3
REMARK    2  A    between atoms: C_6  and  C_7
REMARK    3  A    between atoms: C_8  and  C_9
REMARK    4  A    between atoms: C_11  and  O_12
REMARK    5  A    between atoms: C_14  and  O_15
REMARK    6  A    between atoms: C_17  and  O_18
REMARK    7  A    between atoms: C_21  and  O_22
REMARK    8  A    between atoms: O_22  and  P_23
REMARK    9  A    between atoms: C_27  and  O_28
REMARK   10  A    between atoms: O_28  and  P_29
REMARK                            x       y       z     vdW  Elec       q    Type
REMARK                         _______ _______ _______ _____ _____    ______ ____
ROOT
ATOM      1  C   UNL     1     -31.685  -4.532  -5.992  0.00  0.00    +0.000 A 
ATOM      2  C   UNL     1     -32.008  -4.175  -7.296  0.00  0.00    +0.000 A 
ATOM      3  C   UNL     1     -33.244  -4.548  -7.809  0.00  0.00    +0.000 A 
ATOM      4  C   UNL     1     -34.128  -5.175  -6.938  0.00  0.00    +0.000 A 
ATOM      5  C   UNL     1     -33.611  -5.924  -5.886  0.00  0.00    +0.000 A 
ATOM      6  C   UNL     1     -32.485  -5.402  -5.262  0.00  0.00    +0.000 A 
ENDROOT
BRANCH   1   8
ATOM      7  C   UNL     1     -29.403  -4.222  -6.644  0.00  0.00    +0.000 C 
ATOM      8  O   UNL     1     -30.367  -4.301  -5.603  0.00  0.00    +0.000 OA
ENDBRANCH   1   8
BRANCH   4   9
ATOM      9  C   UNL     1     -35.501  -5.473  -7.332  0.00  0.00    +0.000 C 
ATOM     10  C   UNL     1     -36.478  -4.692  -6.923  0.00  0.00    +0.000 C 
BRANCH  10  11
ATOM     11  C   UNL     1     -36.246  -3.393  -6.279  0.00  0.00    +0.000 A 
ATOM     12  C   UNL     1     -36.500  -2.284  -7.078  0.00  0.00    +0.000 A 
ATOM     13  C   UNL     1     -36.815  -1.066  -6.490  0.00  0.00    +0.000 A 
ATOM     14  C   UNL     1     -37.364  -1.029  -5.219  0.00  0.00    +0.000 A 
ATOM     15  C   UNL     1     -37.076  -2.100  -4.396  0.00  0.00    +0.000 A 
ATOM     16  C   UNL     1     -36.533  -3.251  -4.932  0.00  0.00    +0.000 A 
BRANCH  13  17
ATOM     17  O   UNL     1     -36.939   0.082  -7.255  0.00  0.00    +0.000 OA
ATOM     18  C   UNL     1     -37.726   0.052  -8.435  0.00  0.00    +0.000 C 
ENDBRANCH  13  17
BRANCH  14  19
ATOM     19  O   UNL     1     -38.450  -0.206  -4.903  0.00  0.00    +0.000 OA
ATOM     20  C   UNL     1     -39.770  -0.510  -5.311  0.00  0.00    +0.000 C 
ENDBRANCH  14  19
BRANCH  15  21
ATOM     21  O   UNL     1     -37.626  -2.065  -3.112  0.00  0.00    +0.000 OA
ATOM     22  C   UNL     1     -38.425  -3.099  -2.583  0.00  0.00    +0.000 C 
ENDBRANCH  15  21
ENDBRANCH  10  11
ENDBRANCH   4   9
BRANCH   5  23
ATOM     23  O   UNL     1     -34.096  -7.200  -5.576  0.00  0.00    +0.000 OA
BRANCH  23  24
ATOM     24  P   UNL     1     -35.215  -7.277  -4.268  0.00  0.00    +0.000 P 
ATOM     25  O   UNL     1     -35.281  -5.896  -3.676  0.00  0.00    +0.000 OA
ATOM     26  O   UNL     1     -36.769  -7.670  -4.808  0.00  0.00    +0.000 OA
ATOM     27  O   UNL     1     -34.682  -8.359  -3.074  0.00  0.00    +0.000 OA
ENDBRANCH  23  24
ENDBRANCH   5  23
BRANCH   6  28
ATOM     28  O   UNL     1     -31.935  -6.062  -4.160  0.00  0.00    +0.000 OA
BRANCH  28  29
ATOM     29  P   UNL     1     -31.797  -5.342  -2.625  0.00  0.00    +0.000 P 
ATOM     30  O   UNL     1     -30.335  -5.193  -2.232  0.00  0.00    +0.000 OA
ATOM     31  O   UNL     1     -32.460  -3.777  -2.599  0.00  0.00    +0.000 OA
ATOM     32  O   UNL     1     -32.585  -6.299  -1.463  0.00  0.00    +0.000 OA
ENDBRANCH  28  29
ENDBRANCH   6  28
TORSDOF 10
ENDMDL
MODEL 3
REMARK VINA RESULT:      -5.6     19.364     23.472
REMARK  Name = 
REMARK  10 active torsions:
REMARK  status: ('A' for Active; 'I' for Inactive)
REMARK    1  A    between atoms: O_2  and  C_3
REMARK    2  A    between atoms: C_6  and  C_7
REMARK    3  A    between atoms: C_8  and  C_9
REMARK    4  A    between atoms: C_11  and  O_12
REMARK    5  A    between atoms: C_14  and  O_15
REMARK    6  A    between atoms: C_17  and  O_18
REMARK    7  A    between atoms: C_21  and  O_22
REMARK    8  A    between atoms: O_22  and  P_23
REMARK    9  A    between atoms: C_27  and  O_28
REMARK   10  A    between atoms: O_28  and  P_29
REMARK                            x       y       z     vdW  Elec       q    Type
REMARK                         _______ _______ _______ _____ _____    ______ ____
ROOT
ATOM      1  C   UNL     1     -28.317   6.211 -10.509  0.00  0.00    +0.000 A 
ATOM      2  C   UNL     1     -26.956   6.448 -10.361  0.00  0.00    +0.000 A 
ATOM      3  C   UNL     1     -26.541   7.623  -9.747  0.00  0.00    +0.000 A 
ATOM      4  C   UNL     1     -27.530   8.448  -9.224  0.00  0.00    +0.000 A 
ATOM      5  C   UNL     1     -28.790   8.437  -9.812  0.00  0.00    +0.000 A 
ATOM      6  C   UNL     1     -29.257   7.195 -10.227  0.00  0.00    +0.000 A 
ENDROOT
BRANCH   1   8
ATOM      7  C   UNL     1     -29.091   3.948 -10.612  0.00  0.00    +0.000 C 
ATOM      8  O   UNL     1     -28.666   5.118 -11.299  0.00  0.00    +0.000 OA
ENDBRANCH   1   8
BRANCH   4   9
ATOM      9  C   UNL     1     -27.196   9.627  -8.431  0.00  0.00    +0.000 C 
ATOM     10  C   UNL     1     -27.606   9.708  -7.183  0.00  0.00    +0.000 C 
BRANCH  10  11
ATOM     11  C   UNL     1     -28.187   8.571  -6.457  0.00  0.00    +0.000 A 
ATOM     12  C   UNL     1     -27.408   8.073  -5.419  0.00  0.00    +0.000 A 
ATOM     13  C   UNL     1     -28.009   7.388  -4.371  0.00  0.00    +0.000 A 
ATOM     14  C   UNL     1     -29.342   7.611  -4.069  0.00  0.00    +0.000 A 
ATOM     15  C   UNL     1     -30.138   8.056  -5.106  0.00  0.00    +0.000 A 
ATOM     16  C   UNL     1     -29.556   8.526  -6.266  0.00  0.00    +0.000 A 
BRANCH  13  17
ATOM     17  O   UNL     1     -27.245   6.768  -3.397  0.00  0.00    +0.000 OA
ATOM     18  C   UNL     1     -26.056   7.391  -2.940  0.00  0.00    +0.000 C 
ENDBRANCH  13  17
BRANCH  14  19
ATOM     19  O   UNL     1     -29.787   7.780  -2.753  0.00  0.00    +0.000 OA
ATOM     20  C   UNL     1     -29.532   8.961  -2.017  0.00  0.00    +0.000 C 
ENDBRANCH  14  19
BRANCH  15  21
ATOM     21  O   UNL     1     -31.485   8.280  -4.805  0.00  0.00    +0.000 OA
ATOM     22  C   UNL     1     -32.536   7.502  -5.330  0.00  0.00    +0.000 C 
ENDBRANCH  15  21
ENDBRANCH  10  11
ENDBRANCH   4   9
BRANCH   5  23
ATOM     23  O   UNL     1     -29.478   9.617 -10.113  0.00  0.00    +0.000 OA
BRANCH  23  24
ATOM     24  P   UNL     1     -29.100  10.337 -11.632  0.00  0.00    +0.000 P 
ATOM     25  O   UNL     1     -30.364  10.983 -12.130  0.00  0.00    +0.000 OA
ATOM     26  O   UNL     1     -27.942  11.559 -11.464  0.00  0.00    +0.000 OA
ATOM     27  O   UNL     1     -28.605   9.165 -12.756  0.00  0.00    +0.000 OA
ENDBRANCH  23  24
ENDBRANCH   5  23
BRANCH   6  28
ATOM     28  O   UNL     1     -30.537   7.085 -10.778  0.00  0.00    +0.000 OA
BRANCH  28  29
ATOM     29  P   UNL     1     -31.926   6.801  -9.839  0.00  0.00    +0.000 P 
ATOM     30  O   UNL     1     -31.708   5.619  -8.906  0.00  0.00    +0.000 OA
ATOM     31  O   UNL     1     -32.301   8.129  -8.847  0.00  0.00    +0.000 OA
ATOM     32  O   UNL     1     -33.251   6.468 -10.849  0.00  0.00    +0.000 OA
ENDBRANCH  28  29
ENDBRANCH   6  28
TORSDOF 10
ENDMDL
MODEL 4
REMARK VINA RESULT:      -5.5     18.123     21.056
REMARK  Name = 
REMARK  10 active torsions:
REMARK  status: ('A' for Active; 'I' for Inactive)
REMARK    1  A    between atoms: O_2  and  C_3
REMARK    2  A    between atoms: C_6  and  C_7
REMARK    3  A    between atoms: C_8  and  C_9
REMARK    4  A    between atoms: C_11  and  O_12
REMARK    5  A    between atoms: C_14  and  O_15
REMARK    6  A    between atoms: C_17  and  O_18
REMARK    7  A    between atoms: C_21  and  O_22
REMARK    8  A    between atoms: O_22  and  P_23
REMARK    9  A    between atoms: C_27  and  O_28
REMARK   10  A    between atoms: O_28  and  P_29
REMARK                            x       y       z     vdW  Elec       q    Type
REMARK                         _______ _______ _______ _____ _____    ______ ____
ROOT
ATOM      1  C   UNL     1     -32.173  -3.486  -5.217  0.00  0.00    +0.000 A 
ATOM      2  C   UNL     1     -32.895  -2.488  -5.860  0.00  0.00    +0.000 A 
ATOM      3  C   UNL     1     -34.240  -2.327  -5.554  0.00  0.00    +0.000 A 
ATOM      4  C   UNL     1     -34.758  -3.120  -4.537  0.00  0.00    +0.000 A 
ATOM      5  C   UNL     1     -34.188  -4.367  -4.306  0.00  0.00    +0.000 A 
ATOM      6  C   UNL     1     -32.804  -4.434  -4.421  0.00  0.00    +0.000 A 
ENDROOT
BRANCH   1   8
ATOM      7  C   UNL     1     -30.795  -4.204  -7.037  0.00  0.00    +0.000 C 
ATOM      8  O   UNL     1     -30.890  -3.724  -5.702  0.00  0.00    +0.000 OA
ENDBRANCH   1   8
BRANCH   4   9
ATOM      9  C   UNL     1     -36.116  -2.927  -4.037  0.00  0.00    +0.000 C 
ATOM     10  C   UNL     1     -37.034  -2.422  -4.833  0.00  0.00    +0.000 C 
BRANCH  10  11
ATOM     11  C   UNL     1     -36.835  -2.254  -6.279  0.00  0.00    +0.000 A 
ATOM     12  C   UNL     1     -37.303  -3.301  -7.064  0.00  0.00    +0.000 A 
ATOM     13  C   UNL     1     -37.644  -3.072  -8.391  0.00  0.00    +0.000 A 
ATOM     14  C   UNL     1     -38.005  -1.801  -8.805  0.00  0.00    +0.000 A 
ATOM     15  C   UNL     1     -37.504  -0.749  -8.064  0.00  0.00    +0.000 A 
ATOM     16  C   UNL     1     -36.938  -0.989  -6.828  0.00  0.00    +0.000 A 
BRANCH  13  17
ATOM     17  O   UNL     1     -37.983  -4.120  -9.230  0.00  0.00    +0.000 OA
ATOM     18  C   UNL     1     -37.853  -5.454  -8.766  0.00  0.00    +0.000 C 
ENDBRANCH  13  17
BRANCH  14  19
ATOM     19  O   UNL     1     -39.107  -1.577  -9.637  0.00  0.00    +0.000 OA
ATOM     20  C   UNL     1     -40.439  -1.719  -9.180  0.00  0.00    +0.000 C 
ENDBRANCH  14  19
BRANCH  15  21
ATOM     21  O   UNL     1     -37.865   0.535  -8.481  0.00  0.00    +0.000 OA
ATOM     22  C   UNL     1     -38.642   1.414  -7.698  0.00  0.00    +0.000 C 
ENDBRANCH  15  21
ENDBRANCH  10  11
ENDBRANCH   4   9
BRANCH   5  23
ATOM     23  O   UNL     1     -34.965  -5.516  -4.125  0.00  0.00    +0.000 OA
BRANCH  23  24
ATOM     24  P   UNL     1     -35.300  -6.424  -5.551  0.00  0.00    +0.000 P 
ATOM     25  O   UNL     1     -36.796  -6.547  -5.642  0.00  0.00    +0.000 OA
ATOM     26  O   UNL     1     -34.776  -5.609  -6.938  0.00  0.00    +0.000 OA
ATOM     27  O   UNL     1     -34.628  -7.979  -5.455  0.00  0.00    +0.000 OA
ENDBRANCH  23  24
ENDBRANCH   5  23
BRANCH   6  28
ATOM     28  O   UNL     1     -32.144  -5.636  -4.150  0.00  0.00    +0.000 OA
BRANCH  28  29
ATOM     29  P   UNL     1     -31.229  -5.891  -2.739  0.00  0.00    +0.000 P 
ATOM     30  O   UNL     1     -31.991  -5.412  -1.513  0.00  0.00    +0.000 OA
ATOM     31  O   UNL     1     -30.905  -7.540  -2.484  0.00  0.00    +0.000 OA
ATOM     32  O   UNL     1     -29.760  -5.045  -2.840  0.00  0.00    +0.000 OA
ENDBRANCH  28  29
ENDBRANCH   6  28
TORSDOF 10
ENDMDL
MODEL 5
REMARK VINA RESULT:      -5.4     15.568     20.379
REMARK  Name = 
REMARK  10 active torsions:
REMARK  status: ('A' for Active; 'I' for Inactive)
REMARK    1  A    between atoms: O_2  and  C_3
REMARK    2  A    between atoms: C_6  and  C_7
REMARK    3  A    between atoms: C_8  and  C_9
REMARK    4  A    between atoms: C_11  and  O_12
REMARK    5  A    between atoms: C_14  and  O_15
REMARK    6  A    between atoms: C_17  and  O_18
REMARK    7  A    between atoms: C_21  and  O_22
REMARK    8  A    between atoms: O_22  and  P_23
REMARK    9  A    between atoms: C_27  and  O_28
REMARK   10  A    between atoms: O_28  and  P_29
REMARK                            x       y       z     vdW  Elec       q    Type
REMARK                         _______ _______ _______ _____ _____    ______ ____
ROOT
ATOM      1  C   UNL     1     -25.747   8.007  -7.223  0.00  0.00    +0.000 A 
ATOM      2  C   UNL     1     -24.366   8.129  -7.128  0.00  0.00    +0.000 A 
ATOM      3  C   UNL     1     -23.828   8.899  -6.105  0.00  0.00    +0.000 A 
ATOM      4  C   UNL     1     -24.716   9.423  -5.172  0.00  0.00    +0.000 A 
ATOM      5  C   UNL     1     -26.019   9.697  -5.571  0.00  0.00    +0.000 A 
ATOM      6  C   UNL     1     -26.596   8.779  -6.440  0.00  0.00    +0.000 A 
ENDROOT
BRANCH   1   8
ATOM      7  C   UNL     1     -25.892   7.998  -9.612  0.00  0.00    +0.000 C 
ATOM      8  O   UNL     1     -26.229   7.387  -8.374  0.00  0.00    +0.000 OA
ENDBRANCH   1   8
BRANCH   4   9
ATOM      9  C   UNL     1     -24.243  10.119  -3.979  0.00  0.00    +0.000 C 
ATOM     10  C   UNL     1     -24.049   9.444  -2.867  0.00  0.00    +0.000 C 
BRANCH  10  11
ATOM     11  C   UNL     1     -24.057   7.976  -2.811  0.00  0.00    +0.000 A 
ATOM     12  C   UNL     1     -22.903   7.399  -2.295  0.00  0.00    +0.000 A 
ATOM     13  C   UNL     1     -22.958   6.134  -1.724  0.00  0.00    +0.000 A 
ATOM     14  C   UNL     1     -24.152   5.656  -1.210  0.00  0.00    +0.000 A 
ATOM     15  C   UNL     1     -25.307   6.183  -1.752  0.00  0.00    +0.000 A 
ATOM     16  C   UNL     1     -25.243   7.321  -2.530  0.00  0.00    +0.000 A 
BRANCH  13  17
ATOM     17  O   UNL     1     -21.803   5.483  -1.325  0.00  0.00    +0.000 OA
ATOM     18  C   UNL     1     -20.839   6.182  -0.554  0.00  0.00    +0.000 C 
ENDBRANCH  13  17
BRANCH  14  19
ATOM     19  O   UNL     1     -24.220   5.007   0.028  0.00  0.00    +0.000 OA
ATOM     20  C   UNL     1     -24.140   3.599   0.147  0.00  0.00    +0.000 C 
ENDBRANCH  14  19
BRANCH  15  21
ATOM     21  O   UNL     1     -26.513   5.701  -1.237  0.00  0.00    +0.000 OA
ATOM     22  C   UNL     1     -27.248   4.656  -1.834  0.00  0.00    +0.000 C 
ENDBRANCH  15  21
ENDBRANCH  10  11
ENDBRANCH   4   9
BRANCH   5  23
ATOM     23  O   UNL     1     -26.656  10.901  -5.246  0.00  0.00    +0.000 OA
BRANCH  23  24
ATOM     24  P   UNL     1     -26.307  12.234  -6.280  0.00  0.00    +0.000 P 
ATOM     25  O   UNL     1     -26.011  11.659  -7.638  0.00  0.00    +0.000 OA
ATOM     26  O   UNL     1     -27.648  13.253  -6.446  0.00  0.00    +0.000 OA
ATOM     27  O   UNL     1     -24.945  13.087  -5.737  0.00  0.00    +0.000 OA
ENDBRANCH  23  24
ENDBRANCH   5  23
BRANCH   6  28
ATOM     28  O   UNL     1     -27.922   8.949  -6.847  0.00  0.00    +0.000 OA
BRANCH  28  29
ATOM     29  P   UNL     1     -29.249   8.529  -5.869  0.00  0.00    +0.000 P 
ATOM     30  O   UNL     1     -28.849   7.478  -4.845  0.00  0.00    +0.000 OA
ATOM     31  O   UNL     1     -29.829   9.860  -4.984  0.00  0.00    +0.000 OA
ATOM     32  O   UNL     1     -30.506   7.911  -6.831  0.00  0.00    +0.000 OA
ENDBRANCH  28  29
ENDBRANCH   6  28
TORSDOF 10
ENDMDL
MODEL 6
REMARK VINA RESULT:      -5.4      1.882      2.609
REMARK  Name = 
REMARK  10 active torsions:
REMARK  status: ('A' for Active; 'I' for Inactive)
REMARK    1  A    between atoms: O_2  and  C_3
REMARK    2  A    between atoms: C_6  and  C_7
REMARK    3  A    between atoms: C_8  and  C_9
REMARK    4  A    between atoms: C_11  and  O_12
REMARK    5  A    between atoms: C_14  and  O_15
REMARK    6  A    between atoms: C_17  and  O_18
REMARK    7  A    between atoms: C_21  and  O_22
REMARK    8  A    between atoms: O_22  and  P_23
REMARK    9  A    between atoms: C_27  and  O_28
REMARK   10  A    between atoms: O_28  and  P_29
REMARK                            x       y       z     vdW  Elec       q    Type
REMARK                         _______ _______ _______ _____ _____    ______ ____
ROOT
ATOM      1  C   UNL     1     -23.157  -6.499   8.093  0.00  0.00    +0.000 A 
ATOM      2  C   UNL     1     -23.465  -5.336   8.787  0.00  0.00    +0.000 A 
ATOM      3  C   UNL     1     -22.564  -4.857   9.730  0.00  0.00    +0.000 A 
ATOM      4  C   UNL     1     -21.351  -5.527   9.845  0.00  0.00    +0.000 A 
ATOM      5  C   UNL     1     -21.305  -6.882   9.537  0.00  0.00    +0.000 A 
ATOM      6  C   UNL     1     -22.067  -7.285   8.447  0.00  0.00    +0.000 A 
ENDROOT
BRANCH   1   8
ATOM      7  C   UNL     1     -25.438  -6.380   7.378  0.00  0.00    +0.000 C 
ATOM      8  O   UNL     1     -24.177  -7.032   7.308  0.00  0.00    +0.000 OA
ENDBRANCH   1   8
BRANCH   4   9
ATOM      9  C   UNL     1     -20.279  -5.019  10.696  0.00  0.00    +0.000 C 
ATOM     10  C   UNL     1     -19.417  -4.153  10.206  0.00  0.00    +0.000 C 
BRANCH  10  11
ATOM     11  C   UNL     1     -19.605  -3.482   8.914  0.00  0.00    +0.000 A 
ATOM     12  C   UNL     1     -19.901  -2.126   8.991  0.00  0.00    +0.000 A 
ATOM     13  C   UNL     1     -19.606  -1.292   7.920  0.00  0.00    +0.000 A 
ATOM     14  C   UNL     1     -18.610  -1.640   7.022  0.00  0.00    +0.000 A 
ATOM     15  C   UNL     1     -18.342  -2.990   6.898  0.00  0.00    +0.000 A 
ATOM     16  C   UNL     1     -18.834  -3.876   7.835  0.00  0.00    +0.000 A 
BRANCH  13  17
ATOM     17  O   UNL     1     -20.011   0.032   7.917  0.00  0.00    +0.000 OA
ATOM     18  C   UNL     1     -19.508   0.918   8.903  0.00  0.00    +0.000 C 
ENDBRANCH  13  17
BRANCH  14  19
ATOM     19  O   UNL     1     -17.659  -0.718   6.573  0.00  0.00    +0.000 OA
ATOM     20  C   UNL     1     -17.920   0.176   5.508  0.00  0.00    +0.000 C 
ENDBRANCH  14  19
BRANCH  15  21
ATOM     21  O   UNL     1     -17.340  -3.344   5.991  0.00  0.00    +0.000 OA
ATOM     22  C   UNL     1     -17.059  -4.678   5.629  0.00  0.00    +0.000 C 
ENDBRANCH  15  21
ENDBRANCH  10  11
ENDBRANCH   4   9
BRANCH   5  23
ATOM     23  O   UNL     1     -20.660  -7.809  10.364  0.00  0.00    +0.000 OA
BRANCH  23  24
ATOM     24  P   UNL     1     -19.050  -8.223   9.910  0.00  0.00    +0.000 P 
ATOM     25  O   UNL     1     -18.182  -7.953  11.108  0.00  0.00    +0.000 OA
ATOM     26  O   UNL     1     -18.916  -9.871   9.550  0.00  0.00    +0.000 OA
ATOM     27  O   UNL     1     -18.515  -7.261   8.618  0.00  0.00    +0.000 OA
ENDBRANCH  23  24
ENDBRANCH   5  23
BRANCH   6  28
ATOM     28  O   UNL     1     -22.034  -8.620   8.034  0.00  0.00    +0.000 OA
BRANCH  28  29
ATOM     29  P   UNL     1     -21.332  -9.116   6.567  0.00  0.00    +0.000 P 
ATOM     30  O   UNL     1     -22.368  -9.125   5.453  0.00  0.00    +0.000 OA
ATOM     31  O   UNL     1     -20.101  -8.056   6.064  0.00  0.00    +0.000 OA
ATOM     32  O   UNL     1     -20.687 -10.679   6.732  0.00  0.00    +0.000 OA
ENDBRANCH  28  29
ENDBRANCH   6  28
TORSDOF 10
ENDMDL
MODEL 7
REMARK VINA RESULT:      -5.3     30.839     32.996
REMARK  Name = 
REMARK  10 active torsions:
REMARK  status: ('A' for Active; 'I' for Inactive)
REMARK    1  A    between atoms: O_2  and  C_3
REMARK    2  A    between atoms: C_6  and  C_7
REMARK    3  A    between atoms: C_8  and  C_9
REMARK    4  A    between atoms: C_11  and  O_12
REMARK    5  A    between atoms: C_14  and  O_15
REMARK    6  A    between atoms: C_17  and  O_18
REMARK    7  A    between atoms: C_21  and  O_22
REMARK    8  A    between atoms: O_22  and  P_23
REMARK    9  A    between atoms: C_27  and  O_28
REMARK   10  A    between atoms: O_28  and  P_29
REMARK                            x       y       z     vdW  Elec       q    Type
REMARK                         _______ _______ _______ _____ _____    ______ ____
ROOT
ATOM      1  C   UNL     1     -23.631 -11.864 -24.774  0.00  0.00    +0.000 A 
ATOM      2  C   UNL     1     -23.571 -10.915 -25.787  0.00  0.00    +0.000 A 
ATOM      3  C   UNL     1     -23.019  -9.671 -25.512  0.00  0.00    +0.000 A 
ATOM      4  C   UNL     1     -22.463  -9.490 -24.250  0.00  0.00    +0.000 A 
ATOM      5  C   UNL     1     -22.974 -10.221 -23.183  0.00  0.00    +0.000 A 
ATOM      6  C   UNL     1     -23.324 -11.537 -23.459  0.00  0.00    +0.000 A 
ENDROOT
BRANCH   1   8
ATOM      7  C   UNL     1     -25.748 -12.831 -25.334  0.00  0.00    +0.000 C 
ATOM      8  O   UNL     1     -24.366 -13.014 -25.054  0.00  0.00    +0.000 OA
ENDBRANCH   1   8
BRANCH   4   9
ATOM      9  C   UNL     1     -21.727  -8.276 -23.910  0.00  0.00    +0.000 C 
ATOM     10  C   UNL     1     -20.426  -8.231 -24.102  0.00  0.00    +0.000 C 
BRANCH  10  11
ATOM     11  C   UNL     1     -19.693  -9.252 -24.861  0.00  0.00    +0.000 A 
ATOM     12  C   UNL     1     -19.292  -8.866 -26.135  0.00  0.00    +0.000 A 
ATOM     13  C   UNL     1     -18.206  -9.489 -26.736  0.00  0.00    +0.000 A 
ATOM     14  C   UNL     1     -17.235 -10.096 -25.957  0.00  0.00    +0.000 A 
ATOM     15  C   UNL     1     -17.634 -10.531 -24.709  0.00  0.00    +0.000 A 
ATOM     16  C   UNL     1     -18.839 -10.106 -24.186  0.00  0.00    +0.000 A 
BRANCH  13  17
ATOM     17  O   UNL     1     -17.870  -9.219 -28.052  0.00  0.00    +0.000 OA
ATOM     18  C   UNL     1     -18.503  -8.144 -28.727  0.00  0.00    +0.000 C 
ENDBRANCH  13  17
BRANCH  14  19
ATOM     19  O   UNL     1     -15.869  -9.928 -26.210  0.00  0.00    +0.000 OA
ATOM     20  C   UNL     1     -15.183  -8.735 -25.884  0.00  0.00    +0.000 C 
ENDBRANCH  14  19
BRANCH  15  21
ATOM     21  O   UNL     1     -16.657 -11.146 -23.922  0.00  0.00    +0.000 OA
ATOM     22  C   UNL     1     -16.310 -12.507 -24.039  0.00  0.00    +0.000 C 
ENDBRANCH  15  21
ENDBRANCH  10  11
ENDBRANCH   4   9
BRANCH   5  23
ATOM     23  O   UNL     1     -23.269  -9.626 -21.951  0.00  0.00    +0.000 OA
BRANCH  23  24
ATOM     24  P   UNL     1     -24.717  -8.693 -21.898  0.00  0.00    +0.000 P 
ATOM     25  O   UNL     1     -24.402  -7.373 -22.546  0.00  0.00    +0.000 OA
ATOM     26  O   UNL     1     -25.950  -9.418 -22.801  0.00  0.00    +0.000 OA
ATOM     27  O   UNL     1     -25.203  -8.414 -20.296  0.00  0.00    +0.000 OA
ENDBRANCH  23  24
ENDBRANCH   5  23
BRANCH   6  28
ATOM     28  O   UNL     1     -23.794 -12.359 -22.430  0.00  0.00    +0.000 OA
BRANCH  28  29
ATOM     29  P   UNL     1     -23.131 -13.889 -22.094  0.00  0.00    +0.000 P 
ATOM     30  O   UNL     1     -24.195 -14.970 -22.208  0.00  0.00    +0.000 OA
ATOM     31  O   UNL     1     -21.908 -14.305 -23.199  0.00  0.00    +0.000 OA
ATOM     32  O   UNL     1     -22.490 -13.910 -20.521  0.00  0.00    +0.000 OA
ENDBRANCH  28  29
ENDBRANCH   6  28
TORSDOF 10
ENDMDL
MODEL 8
REMARK VINA RESULT:      -5.3     15.998     19.275
REMARK  Name = 
REMARK  10 active torsions:
REMARK  status: ('A' for Active; 'I' for Inactive)
REMARK    1  A    between atoms: O_2  and  C_3
REMARK    2  A    between atoms: C_6  and  C_7
REMARK    3  A    between atoms: C_8  and  C_9
REMARK    4  A    between atoms: C_11  and  O_12
REMARK    5  A    between atoms: C_14  and  O_15
REMARK    6  A    between atoms: C_17  and  O_18
REMARK    7  A    between atoms: C_21  and  O_22
REMARK    8  A    between atoms: O_22  and  P_23
REMARK    9  A    between atoms: C_27  and  O_28
REMARK   10  A    between atoms: O_28  and  P_29
REMARK                            x       y       z     vdW  Elec       q    Type
REMARK                         _______ _______ _______ _____ _____    ______ ____
ROOT
ATOM      1  C   UNL     1     -26.434   8.100  -1.557  0.00  0.00    +0.000 A 
ATOM      2  C   UNL     1     -26.341   9.460  -1.830  0.00  0.00    +0.000 A 
ATOM      3  C   UNL     1     -25.233   9.933  -2.523  0.00  0.00    +0.000 A 
ATOM      4  C   UNL     1     -24.328   8.987  -2.991  0.00  0.00    +0.000 A 
ATOM      5  C   UNL     1     -24.194   7.789  -2.298  0.00  0.00    +0.000 A 
ATOM      6  C   UNL     1     -25.369   7.241  -1.797  0.00  0.00    +0.000 A 
ENDROOT
BRANCH   1   8
ATOM      7  C   UNL     1     -28.763   7.634  -1.265  0.00  0.00    +0.000 C 
ATOM      8  O   UNL     1     -27.462   7.717  -0.699  0.00  0.00    +0.000 OA
ENDBRANCH   1   8
BRANCH   4   9
ATOM      9  C   UNL     1     -23.213   9.364  -3.855  0.00  0.00    +0.000 C 
ATOM     10  C   UNL     1     -23.387   9.405  -5.159  0.00  0.00    +0.000 C 
BRANCH  10  11
ATOM     11  C   UNL     1     -24.710   9.319  -5.792  0.00  0.00    +0.000 A 
ATOM     12  C   UNL     1     -25.393  10.525  -5.896  0.00  0.00    +0.000 A 
ATOM     13  C   UNL     1     -26.362  10.688  -6.878  0.00  0.00    +0.000 A 
ATOM     14  C   UNL     1     -26.320   9.919  -8.029  0.00  0.00    +0.000 A 
ATOM     15  C   UNL     1     -25.689   8.695  -7.925  0.00  0.00    +0.000 A 
ATOM     16  C   UNL     1     -24.902   8.420  -6.826  0.00  0.00    +0.000 A 
BRANCH  13  17
ATOM     17  O   UNL     1     -27.149  11.827  -6.918  0.00  0.00    +0.000 OA
ATOM     18  C   UNL     1     -28.496  11.759  -6.478  0.00  0.00    +0.000 C 
ENDBRANCH  13  17
BRANCH  14  19
ATOM     19  O   UNL     1     -26.521  10.472  -9.298  0.00  0.00    +0.000 OA
ATOM     20  C   UNL     1     -27.784  10.461  -9.935  0.00  0.00    +0.000 C 
ENDBRANCH  14  19
BRANCH  15  21
ATOM     21  O   UNL     1     -25.648   7.916  -9.085  0.00  0.00    +0.000 OA
ATOM     22  C   UNL     1     -26.666   7.011  -9.446  0.00  0.00    +0.000 C 
ENDBRANCH  15  21
ENDBRANCH  10  11
ENDBRANCH   4   9
BRANCH   5  23
ATOM     23  O   UNL     1     -22.941   7.249  -1.986  0.00  0.00    +0.000 OA
BRANCH  23  24
ATOM     24  P   UNL     1     -22.270   7.740  -0.477  0.00  0.00    +0.000 P 
ATOM     25  O   UNL     1     -22.695   6.713   0.537  0.00  0.00    +0.000 OA
ATOM     26  O   UNL     1     -20.579   7.734  -0.523  0.00  0.00    +0.000 OA
ATOM     27  O   UNL     1     -22.871   9.255  -0.007  0.00  0.00    +0.000 OA
ENDBRANCH  23  24
ENDBRANCH   5  23
BRANCH   6  28
ATOM     28  O   UNL     1     -25.332   6.010  -1.135  0.00  0.00    +0.000 OA
BRANCH  28  29
ATOM     29  P   UNL     1     -26.207   4.651  -1.664  0.00  0.00    +0.000 P 
ATOM     30  O   UNL     1     -27.050   4.997  -2.882  0.00  0.00    +0.000 OA
ATOM     31  O   UNL     1     -25.179   3.383  -2.140  0.00  0.00    +0.000 OA
ATOM     32  O   UNL     1     -27.230   4.102  -0.424  0.00  0.00    +0.000 OA
ENDBRANCH  28  29
ENDBRANCH   6  28
TORSDOF 10
ENDMDL
MODEL 9
REMARK VINA RESULT:      -5.3     19.313     23.410
REMARK  Name = 
REMARK  10 active torsions:
REMARK  status: ('A' for Active; 'I' for Inactive)
REMARK    1  A    between atoms: O_2  and  C_3
REMARK    2  A    between atoms: C_6  and  C_7
REMARK    3  A    between atoms: C_8  and  C_9
REMARK    4  A    between atoms: C_11  and  O_12
REMARK    5  A    between atoms: C_14  and  O_15
REMARK    6  A    between atoms: C_17  and  O_18
REMARK    7  A    between atoms: C_21  and  O_22
REMARK    8  A    between atoms: O_22  and  P_23
REMARK    9  A    between atoms: C_27  and  O_28
REMARK   10  A    between atoms: O_28  and  P_29
REMARK                            x       y       z     vdW  Elec       q    Type
REMARK                         _______ _______ _______ _____ _____    ______ ____
ROOT
ATOM      1  C   UNL     1     -28.122   6.309 -10.814  0.00  0.00    +0.000 A 
ATOM      2  C   UNL     1     -26.744   6.391 -10.655  0.00  0.00    +0.000 A 
ATOM      3  C   UNL     1     -26.182   7.601 -10.270  0.00  0.00    +0.000 A 
ATOM      4  C   UNL     1     -27.057   8.639  -9.968  0.00  0.00    +0.000 A 
ATOM      5  C   UNL     1     -28.296   8.673 -10.599  0.00  0.00    +0.000 A 
ATOM      6  C   UNL     1     -28.922   7.445 -10.778  0.00  0.00    +0.000 A 
ENDROOT
BRANCH   1   8
ATOM      7  C   UNL     1     -28.958   4.091 -10.485  0.00  0.00    +0.000 C 
ATOM      8  O   UNL     1     -28.605   5.133 -11.385  0.00  0.00    +0.000 OA
ENDBRANCH   1   8
BRANCH   4   9
ATOM      9  C   UNL     1     -26.578   9.901  -9.413  0.00  0.00    +0.000 C 
ATOM     10  C   UNL     1     -26.406  10.015  -8.113  0.00  0.00    +0.000 C 
BRANCH  10  11
ATOM     11  C   UNL     1     -26.446   8.867  -7.198  0.00  0.00    +0.000 A 
ATOM     12  C   UNL     1     -25.362   8.764  -6.334  0.00  0.00    +0.000 A 
ATOM     13  C   UNL     1     -25.499   8.082  -5.132  0.00  0.00    +0.000 A 
ATOM     14  C   UNL     1     -26.748   7.945  -4.549  0.00  0.00    +0.000 A 
ATOM     15  C   UNL     1     -27.831   7.993  -5.405  0.00  0.00    +0.000 A 
ATOM     16  C   UNL     1     -27.666   8.450  -6.697  0.00  0.00    +0.000 A 
BRANCH  13  17
ATOM     17  O   UNL     1     -24.404   7.849  -4.317  0.00  0.00    +0.000 OA
ATOM     18  C   UNL     1     -23.630   8.946  -3.858  0.00  0.00    +0.000 C 
ENDBRANCH  13  17
BRANCH  14  19
ATOM     19  O   UNL     1     -26.956   8.153  -3.182  0.00  0.00    +0.000 OA
ATOM     20  C   UNL     1     -26.960   7.089  -2.249  0.00  0.00    +0.000 C 
ENDBRANCH  14  19
BRANCH  15  21
ATOM     21  O   UNL     1     -29.093   7.853  -4.820  0.00  0.00    +0.000 OA
ATOM     22  C   UNL     1     -30.296   8.147  -5.494  0.00  0.00    +0.000 C 
ENDBRANCH  15  21
ENDBRANCH  10  11
ENDBRANCH   4   9
BRANCH   5  23
ATOM     23  O   UNL     1     -28.809   9.847 -11.161  0.00  0.00    +0.000 OA
BRANCH  23  24
ATOM     24  P   UNL     1     -29.922  10.722 -10.178  0.00  0.00    +0.000 P 
ATOM     25  O   UNL     1     -29.309  12.073  -9.933  0.00  0.00    +0.000 OA
ATOM     26  O   UNL     1     -31.389  10.973 -10.982  0.00  0.00    +0.000 OA
ATOM     27  O   UNL     1     -30.157   9.948  -8.687  0.00  0.00    +0.000 OA
ENDBRANCH  23  24
ENDBRANCH   5  23
BRANCH   6  28
ATOM     28  O   UNL     1     -30.195   7.394 -11.354  0.00  0.00    +0.000 OA
BRANCH  28  29
ATOM     29  P   UNL     1     -31.584   6.938 -10.484  0.00  0.00    +0.000 P 
ATOM     30  O   UNL     1     -31.272   6.820  -9.000  0.00  0.00    +0.000 OA
ATOM     31  O   UNL     1     -32.823   8.095 -10.621  0.00  0.00    +0.000 OA
ATOM     32  O   UNL     1     -32.155   5.441 -11.048  0.00  0.00    +0.000 OA
ENDBRANCH  28  29
ENDBRANCH   6  28
TORSDOF 10
ENDMDL
MODEL 10
REMARK VINA RESULT:      -5.3     12.049     15.302
REMARK  Name = 
REMARK  10 active torsions:
REMARK  status: ('A' for Active; 'I' for Inactive)
REMARK    1  A    between atoms: O_2  and  C_3
REMARK    2  A    between atoms: C_6  and  C_7
REMARK    3  A    between atoms: C_8  and  C_9
REMARK    4  A    between atoms: C_11  and  O_12
REMARK    5  A    between atoms: C_14  and  O_15
REMARK    6  A    between atoms: C_17  and  O_18
REMARK    7  A    between atoms: C_21  and  O_22
REMARK    8  A    between atoms: O_22  and  P_23
REMARK    9  A    between atoms: C_27  and  O_28
REMARK   10  A    between atoms: O_28  and  P_29
REMARK                            x       y       z     vdW  Elec       q    Type
REMARK                         _______ _______ _______ _____ _____    ______ ____
ROOT
ATOM      1  C   UNL     1     -23.866   5.444  -0.041  0.00  0.00    +0.000 A 
ATOM      2  C   UNL     1     -23.720   6.665   0.607  0.00  0.00    +0.000 A 
ATOM      3  C   UNL     1     -24.854   7.411   0.900  0.00  0.00    +0.000 A 
ATOM      4  C   UNL     1     -26.085   6.833   0.611  0.00  0.00    +0.000 A 
ATOM      5  C   UNL     1     -26.165   5.918  -0.432  0.00  0.00    +0.000 A 
ATOM      6  C   UNL     1     -25.092   5.045  -0.561  0.00  0.00    +0.000 A 
ENDROOT
BRANCH   1   8
ATOM      7  C   UNL     1     -21.615   5.705  -0.810  0.00  0.00    +0.000 C 
ATOM      8  O   UNL     1     -22.691   4.837  -0.478  0.00  0.00    +0.000 OA
ENDBRANCH   1   8
BRANCH   4   9
ATOM      9  C   UNL     1     -27.337   7.467   1.015  0.00  0.00    +0.000 C 
ATOM     10  C   UNL     1     -28.027   6.962   2.014  0.00  0.00    +0.000 C 
BRANCH  10  11
ATOM     11  C   UNL     1     -27.497   5.926   2.910  0.00  0.00    +0.000 A 
ATOM     12  C   UNL     1     -27.355   6.310   4.238  0.00  0.00    +0.000 A 
ATOM     13  C   UNL     1     -27.365   5.349   5.240  0.00  0.00    +0.000 A 
ATOM     14  C   UNL     1     -27.992   4.132   5.030  0.00  0.00    +0.000 A 
ATOM     15  C   UNL     1     -28.093   3.714   3.718  0.00  0.00    +0.000 A 
ATOM     16  C   UNL     1     -27.851   4.606   2.692  0.00  0.00    +0.000 A 
BRANCH  13  17
ATOM     17  O   UNL     1     -27.092   5.689   6.555  0.00  0.00    +0.000 OA
ATOM     18  C   UNL     1     -27.725   6.821   7.128  0.00  0.00    +0.000 C 
ENDBRANCH  13  17
BRANCH  14  19
ATOM     19  O   UNL     1     -28.826   3.551   5.991  0.00  0.00    +0.000 OA
ATOM     20  C   UNL     1     -30.133   4.030   6.245  0.00  0.00    +0.000 C 
ENDBRANCH  14  19
BRANCH  15  21
ATOM     21  O   UNL     1     -28.724   2.485   3.502  0.00  0.00    +0.000 OA
ATOM     22  C   UNL     1     -28.044   1.251   3.525  0.00  0.00    +0.000 C 
ENDBRANCH  15  21
ENDBRANCH  10  11
ENDBRANCH   4   9
BRANCH   5  23
ATOM     23  O   UNL     1     -27.184   5.974  -1.390  0.00  0.00    +0.000 OA
BRANCH  23  24
ATOM     24  P   UNL     1     -26.917   7.056  -2.704  0.00  0.00    +0.000 P 
ATOM     25  O   UNL     1     -27.256   8.433  -2.202  0.00  0.00    +0.000 OA
ATOM     26  O   UNL     1     -25.290   7.075  -3.167  0.00  0.00    +0.000 OA
ATOM     27  O   UNL     1     -27.930   6.686  -4.014  0.00  0.00    +0.000 OA
ENDBRANCH  23  24
ENDBRANCH   5  23
BRANCH   6  28
ATOM     28  O   UNL     1     -25.117   4.057  -1.549  0.00  0.00    +0.000 OA
BRANCH  28  29
ATOM     29  P   UNL     1     -25.506   2.434  -1.223  0.00  0.00    +0.000 P 
ATOM     30  O   UNL     1     -24.801   1.957   0.038  0.00  0.00    +0.000 OA
ATOM     31  O   UNL     1     -27.171   2.226  -0.945  0.00  0.00    +0.000 OA
ATOM     32  O   UNL     1     -25.032   1.450  -2.524  0.00  0.00    +0.000 OA
ENDBRANCH  28  29
ENDBRANCH   6  28
TORSDOF 10
ENDMDL
