MODEL 1
REMARK VINA RESULT:      -7.4      0.000      0.000
REMARK  Name = 
REMARK  6 active torsions:
REMARK  status: ('A' for Active; 'I' for Inactive)
REMARK    1  A    between atoms: C_2  and  O_5
REMARK    2  A    between atoms: O_5  and  C_6
REMARK    3  A    between atoms: C_12  and  O_13
REMARK    4  A    between atoms: O_13  and  C_14
REMARK    5  A    between atoms: C_20  and  C_21
REMARK    6  A    between atoms: C_22  and  C_23
REMARK                            x       y       z     vdW  Elec       q    Type
REMARK                         _______ _______ _______ _____ _____    ______ ____
ROOT
ATOM      1  C   UNL     1     -30.540  -4.593  -4.464  0.00  0.00    +0.000 A 
ATOM      2  C   UNL     1     -29.266  -4.870  -3.996  0.00  0.00    +0.000 A 
ATOM      3  C   UNL     1     -28.234  -4.022  -4.383  0.00  0.00    +0.000 A 
ATOM      4  O   UNL     1     -27.083  -3.842  -3.652  0.00  0.00    +0.000 OA
ATOM      5  C   UNL     1     -28.384  -3.299  -5.560  0.00  0.00    +0.000 A 
ATOM      6  C   UNL     1     -29.666  -3.078  -6.042  0.00  0.00    +0.000 A 
ATOM      7  C   UNL     1     -30.759  -3.596  -5.375  0.00  0.00    +0.000 A 
ENDROOT
BRANCH   7   8
ATOM      8  C   UNL     1     -32.054  -2.909  -5.318  0.00  0.00    +0.000 C 
ATOM      9  C   UNL     1     -32.890  -2.838  -6.324  0.00  0.00    +0.000 C 
BRANCH   9  10
ATOM     10  C   UNL     1     -34.310  -3.202  -6.253  0.00  0.00    +0.000 A 
ATOM     11  C   UNL     1     -35.266  -2.237  -5.953  0.00  0.00    +0.000 A 
ATOM     12  C   UNL     1     -36.607  -2.537  -6.131  0.00  0.00    +0.000 A 
ATOM     13  O   UNL     1     -37.564  -1.820  -5.419  0.00  0.00    +0.000 OA
ATOM     14  C   UNL     1     -37.017  -3.599  -6.917  0.00  0.00    +0.000 A 
ATOM     15  C   UNL     1     -36.035  -4.370  -7.498  0.00  0.00    +0.000 A 
ATOM     16  O   UNL     1     -36.379  -5.536  -8.152  0.00  0.00    +0.000 OA
ATOM     17  C   UNL     1     -34.725  -4.157  -7.175  0.00  0.00    +0.000 A 
ENDBRANCH   9  10
ENDBRANCH   7   8
BRANCH   1  18
ATOM     18  O   UNL     1     -31.548  -5.435  -4.052  0.00  0.00    +0.000 OA
BRANCH  18  25
ATOM     19  C   UNL     1     -35.063  -7.295  -3.236  0.00  0.00    +0.000 C 
ATOM     20  O   UNL     1     -35.132  -8.554  -3.116  0.00  0.00    +0.000 OA
ATOM     21  N   UNL     1     -33.824  -6.609  -3.484  0.00  0.00    +0.000 N 
ATOM     22  C   UNL     1     -32.622  -7.345  -3.579  0.00  0.00    +0.000 C 
ATOM     23  C   UNL     1     -31.896  -6.889  -2.155  0.00  0.00    +0.000 C 
ATOM     24  F   UNL     1     -33.199  -6.879  -1.362  0.00  0.00    +0.000 F 
ATOM     25  C   UNL     1     -32.038  -5.192  -2.597  0.00  0.00    +0.000 C 
ATOM     26  C   UNL     1     -33.623  -5.338  -3.002  0.00  0.00    +0.000 C 
BRANCH  19  27
ATOM     27  O   UNL     1     -36.241  -6.628  -2.911  0.00  0.00    +0.000 OA
BRANCH  27  29
ATOM     28  C   UNL     1     -36.903  -6.511  -4.726  0.00  0.00    +0.000 C 
ATOM     29  C   UNL     1     -37.245  -6.412  -3.897  0.00  0.00    +0.000 C 
ATOM     30  C   UNL     1     -37.846  -5.039  -3.686  0.00  0.00    +0.000 C 
ATOM     31  C   UNL     1     -38.305  -7.485  -3.681  0.00  0.00    +0.000 C 
ENDBRANCH  27  29
ENDBRANCH  19  27
ENDBRANCH  18  25
ENDBRANCH   1  18
TORSDOF 6
ENDMDL
MODEL 2
REMARK VINA RESULT:      -7.2      3.781      7.425
REMARK  Name = 
REMARK  6 active torsions:
REMARK  status: ('A' for Active; 'I' for Inactive)
REMARK    1  A    between atoms: C_2  and  O_5
REMARK    2  A    between atoms: O_5  and  C_6
REMARK    3  A    between atoms: C_12  and  O_13
REMARK    4  A    between atoms: O_13  and  C_14
REMARK    5  A    between atoms: C_20  and  C_21
REMARK    6  A    between atoms: C_22  and  C_23
REMARK                            x       y       z     vdW  Elec       q    Type
REMARK                         _______ _______ _______ _____ _____    ______ ____
ROOT
ATOM      1  C   UNL     1     -35.967  -4.569  -7.279  0.00  0.00    +0.000 A 
ATOM      2  C   UNL     1     -37.106  -3.820  -7.522  0.00  0.00    +0.000 A 
ATOM      3  C   UNL     1     -37.057  -2.457  -7.250  0.00  0.00    +0.000 A 
ATOM      4  O   UNL     1     -37.855  -1.526  -7.873  0.00  0.00    +0.000 OA
ATOM      5  C   UNL     1     -36.133  -2.008  -6.313  0.00  0.00    +0.000 A 
ATOM      6  C   UNL     1     -35.027  -2.798  -6.043  0.00  0.00    +0.000 A 
ATOM      7  C   UNL     1     -34.871  -4.017  -6.674  0.00  0.00    +0.000 A 
ENDROOT
BRANCH   7   8
ATOM      8  C   UNL     1     -33.559  -4.561  -7.040  0.00  0.00    +0.000 C 
ATOM      9  C   UNL     1     -32.428  -3.923  -6.867  0.00  0.00    +0.000 C 
BRANCH   9  10
ATOM     10  C   UNL     1     -31.254  -4.481  -6.184  0.00  0.00    +0.000 A 
ATOM     11  C   UNL     1     -30.218  -3.646  -5.779  0.00  0.00    +0.000 A 
ATOM     12  C   UNL     1     -29.245  -4.143  -4.927  0.00  0.00    +0.000 A 
ATOM     13  O   UNL     1     -27.996  -3.530  -4.891  0.00  0.00    +0.000 OA
ATOM     14  C   UNL     1     -29.444  -5.295  -4.187  0.00  0.00    +0.000 A 
ATOM     15  C   UNL     1     -30.645  -5.950  -4.351  0.00  0.00    +0.000 A 
ATOM     16  O   UNL     1     -30.832  -7.188  -3.770  0.00  0.00    +0.000 OA
ATOM     17  C   UNL     1     -31.518  -5.536  -5.316  0.00  0.00    +0.000 A 
ENDBRANCH   9  10
ENDBRANCH   7   8
BRANCH   1  18
ATOM     18  O   UNL     1     -36.035  -5.913  -7.574  0.00  0.00    +0.000 OA
BRANCH  18  25
ATOM     19  C   UNL     1     -35.967  -8.958 -10.257  0.00  0.00    +0.000 C 
ATOM     20  O   UNL     1     -35.571 -10.116  -9.931  0.00  0.00    +0.000 OA
ATOM     21  N   UNL     1     -36.039  -7.873  -9.316  0.00  0.00    +0.000 N 
ATOM     22  C   UNL     1     -35.682  -8.091  -7.967  0.00  0.00    +0.000 C 
ATOM     23  C   UNL     1     -37.184  -8.013  -7.259  0.00  0.00    +0.000 C 
ATOM     24  F   UNL     1     -37.887  -8.725  -8.409  0.00  0.00    +0.000 F 
ATOM     25  C   UNL     1     -37.455  -6.419  -7.951  0.00  0.00    +0.000 C 
ATOM     26  C   UNL     1     -36.994  -6.895  -9.454  0.00  0.00    +0.000 C 
BRANCH  19  27
ATOM     27  O   UNL     1     -36.508  -8.882 -11.537  0.00  0.00    +0.000 OA
BRANCH  27  29
ATOM     28  C   UNL     1     -34.858  -8.400 -12.429  0.00  0.00    +0.000 C 
ATOM     29  C   UNL     1     -35.740  -8.357 -12.616  0.00  0.00    +0.000 C 
ATOM     30  C   UNL     1     -36.198  -6.942 -12.894  0.00  0.00    +0.000 C 
ATOM     31  C   UNL     1     -36.022  -9.244 -13.822  0.00  0.00    +0.000 C 
ENDBRANCH  27  29
ENDBRANCH  19  27
ENDBRANCH  18  25
ENDBRANCH   1  18
TORSDOF 6
ENDMDL
MODEL 3
REMARK VINA RESULT:      -7.1      3.546      7.360
REMARK  Name = 
REMARK  6 active torsions:
REMARK  status: ('A' for Active; 'I' for Inactive)
REMARK    1  A    between atoms: C_2  and  O_5
REMARK    2  A    between atoms: O_5  and  C_6
REMARK    3  A    between atoms: C_12  and  O_13
REMARK    4  A    between atoms: O_13  and  C_14
REMARK    5  A    between atoms: C_20  and  C_21
REMARK    6  A    between atoms: C_22  and  C_23
REMARK                            x       y       z     vdW  Elec       q    Type
REMARK                         _______ _______ _______ _____ _____    ______ ____
ROOT
ATOM      1  C   UNL     1     -36.533  -3.463  -7.336  0.00  0.00    +0.000 A 
ATOM      2  C   UNL     1     -37.608  -2.806  -7.912  0.00  0.00    +0.000 A 
ATOM      3  C   UNL     1     -37.731  -1.440  -7.683  0.00  0.00    +0.000 A 
ATOM      4  O   UNL     1     -38.386  -0.581  -8.535  0.00  0.00    +0.000 OA
ATOM      5  C   UNL     1     -37.141  -0.909  -6.542  0.00  0.00    +0.000 A 
ATOM      6  C   UNL     1     -36.102  -1.609  -5.948  0.00  0.00    +0.000 A 
ATOM      7  C   UNL     1     -35.692  -2.820  -6.468  0.00  0.00    +0.000 A 
ENDROOT
BRANCH   7   8
ATOM      8  C   UNL     1     -34.295  -3.267  -6.436  0.00  0.00    +0.000 C 
ATOM      9  C   UNL     1     -33.319  -2.580  -5.898  0.00  0.00    +0.000 C 
BRANCH   9  10
ATOM     10  C   UNL     1     -32.371  -3.113  -4.911  0.00  0.00    +0.000 A 
ATOM     11  C   UNL     1     -32.836  -3.799  -3.794  0.00  0.00    +0.000 A 
ATOM     12  C   UNL     1     -31.934  -4.502  -3.010  0.00  0.00    +0.000 A 
ATOM     13  O   UNL     1     -32.258  -4.779  -1.685  0.00  0.00    +0.000 OA
ATOM     14  C   UNL     1     -30.678  -4.847  -3.477  0.00  0.00    +0.000 A 
ATOM     15  C   UNL     1     -30.344  -4.438  -4.749  0.00  0.00    +0.000 A 
ATOM     16  O   UNL     1     -29.051  -4.606  -5.202  0.00  0.00    +0.000 OA
ATOM     17  C   UNL     1     -31.181  -3.606  -5.437  0.00  0.00    +0.000 A 
ENDBRANCH   9  10
ENDBRANCH   7   8
BRANCH   1  18
ATOM     18  O   UNL     1     -36.422  -4.811  -7.592  0.00  0.00    +0.000 OA
BRANCH  18  25
ATOM     19  C   UNL     1     -36.143  -8.057 -10.014  0.00  0.00    +0.000 C 
ATOM     20  O   UNL     1     -35.550  -9.111  -9.639  0.00  0.00    +0.000 OA
ATOM     21  N   UNL     1     -36.291  -6.908  -9.161  0.00  0.00    +0.000 N 
ATOM     22  C   UNL     1     -35.784  -6.946  -7.843  0.00  0.00    +0.000 C 
ATOM     23  C   UNL     1     -37.210  -7.014  -6.992  0.00  0.00    +0.000 C 
ATOM     24  F   UNL     1     -37.900  -7.923  -8.002  0.00  0.00    +0.000 F 
ATOM     25  C   UNL     1     -37.779  -5.547  -7.778  0.00  0.00    +0.000 C 
ATOM     26  C   UNL     1     -37.390  -6.093  -9.277  0.00  0.00    +0.000 C 
BRANCH  19  27
ATOM     27  O   UNL     1     -36.803  -8.179 -11.233  0.00  0.00    +0.000 OA
BRANCH  27  29
ATOM     28  C   UNL     1     -36.348  -6.953 -12.661  0.00  0.00    +0.000 C 
ATOM     29  C   UNL     1     -36.155  -7.808 -12.446  0.00  0.00    +0.000 C 
ATOM     30  C   UNL     1     -36.566  -8.778 -13.532  0.00  0.00    +0.000 C 
ATOM     31  C   UNL     1     -34.657  -7.915 -12.190  0.00  0.00    +0.000 C 
ENDBRANCH  27  29
ENDBRANCH  19  27
ENDBRANCH  18  25
ENDBRANCH   1  18
TORSDOF 6
ENDMDL
MODEL 4
REMARK VINA RESULT:      -7.1     13.955     16.718
REMARK  Name = 
REMARK  6 active torsions:
REMARK  status: ('A' for Active; 'I' for Inactive)
REMARK    1  A    between atoms: C_2  and  O_5
REMARK    2  A    between atoms: O_5  and  C_6
REMARK    3  A    between atoms: C_12  and  O_13
REMARK    4  A    between atoms: O_13  and  C_14
REMARK    5  A    between atoms: C_20  and  C_21
REMARK    6  A    between atoms: C_22  and  C_23
REMARK                            x       y       z     vdW  Elec       q    Type
REMARK                         _______ _______ _______ _____ _____    ______ ____
ROOT
ATOM      1  C   UNL     1     -26.443   9.073  -6.717  0.00  0.00    +0.000 A 
ATOM      2  C   UNL     1     -25.952   9.642  -5.553  0.00  0.00    +0.000 A 
ATOM      3  C   UNL     1     -24.573   9.748  -5.414  0.00  0.00    +0.000 A 
ATOM      4  O   UNL     1     -23.958  10.690  -4.622  0.00  0.00    +0.000 OA
ATOM      5  C   UNL     1     -23.771   8.870  -6.133  0.00  0.00    +0.000 A 
ATOM      6  C   UNL     1     -24.297   8.268  -7.265  0.00  0.00    +0.000 A 
ATOM      7  C   UNL     1     -25.602   8.520  -7.644  0.00  0.00    +0.000 A 
ENDROOT
BRANCH   7   8
ATOM      8  C   UNL     1     -26.027   8.569  -9.047  0.00  0.00    +0.000 C 
ATOM      9  C   UNL     1     -25.847   7.593  -9.901  0.00  0.00    +0.000 C 
BRANCH   9  10
ATOM     10  C   UNL     1     -26.905   7.012 -10.737  0.00  0.00    +0.000 A 
ATOM     11  C   UNL     1     -27.472   5.788 -10.399  0.00  0.00    +0.000 A 
ATOM     12  C   UNL     1     -28.625   5.376 -11.047  0.00  0.00    +0.000 A 
ATOM     13  O   UNL     1     -28.932   4.019 -11.090  0.00  0.00    +0.000 OA
ATOM     14  C   UNL     1     -29.426   6.264 -11.742  0.00  0.00    +0.000 A 
ATOM     15  C   UNL     1     -29.018   7.579 -11.790  0.00  0.00    +0.000 A 
ATOM     16  O   UNL     1     -29.683   8.472 -12.605  0.00  0.00    +0.000 OA
ATOM     17  C   UNL     1     -27.797   7.928 -11.287  0.00  0.00    +0.000 A 
ENDBRANCH   9  10
ENDBRANCH   7   8
BRANCH   1  18
ATOM     18  O   UNL     1     -27.812   8.996  -6.840  0.00  0.00    +0.000 OA
BRANCH  18  25
ATOM     19  C   UNL     1     -29.704  11.161  -9.706  0.00  0.00    +0.000 C 
ATOM     20  O   UNL     1     -30.729  10.715 -10.300  0.00  0.00    +0.000 OA
ATOM     21  N   UNL     1     -29.039  10.431  -8.659  0.00  0.00    +0.000 N 
ATOM     22  C   UNL     1     -29.547   9.179  -8.247  0.00  0.00    +0.000 C 
ATOM     23  C   UNL     1     -30.151   9.594  -6.754  0.00  0.00    +0.000 C 
ATOM     24  F   UNL     1     -30.648  10.961  -7.210  0.00  0.00    +0.000 F 
ATOM     25  C   UNL     1     -28.581  10.219  -6.266  0.00  0.00    +0.000 C 
ATOM     26  C   UNL     1     -28.404  11.100  -7.641  0.00  0.00    +0.000 C 
BRANCH  19  27
ATOM     27  O   UNL     1     -29.401  12.484 -10.010  0.00  0.00    +0.000 OA
BRANCH  27  29
ATOM     28  C   UNL     1     -28.675  13.466 -11.513  0.00  0.00    +0.000 C 
ATOM     29  C   UNL     1     -28.402  12.793 -10.977  0.00  0.00    +0.000 C 
ATOM     30  C   UNL     1     -28.074  11.538 -11.755  0.00  0.00    +0.000 C 
ATOM     31  C   UNL     1     -27.177  13.262 -10.201  0.00  0.00    +0.000 C 
ENDBRANCH  27  29
ENDBRANCH  19  27
ENDBRANCH  18  25
ENDBRANCH   1  18
TORSDOF 6
ENDMDL
MODEL 5
REMARK VINA RESULT:      -6.8     12.939     14.798
REMARK  Name = 
REMARK  6 active torsions:
REMARK  status: ('A' for Active; 'I' for Inactive)
REMARK    1  A    between atoms: C_2  and  O_5
REMARK    2  A    between atoms: O_5  and  C_6
REMARK    3  A    between atoms: C_12  and  O_13
REMARK    4  A    between atoms: O_13  and  C_14
REMARK    5  A    between atoms: C_20  and  C_21
REMARK    6  A    between atoms: C_22  and  C_23
REMARK                            x       y       z     vdW  Elec       q    Type
REMARK                         _______ _______ _______ _____ _____    ______ ____
ROOT
ATOM      1  C   UNL     1     -26.281   8.800  -6.288  0.00  0.00    +0.000 A 
ATOM      2  C   UNL     1     -25.633   9.255  -5.152  0.00  0.00    +0.000 A 
ATOM      3  C   UNL     1     -24.256   9.439  -5.220  0.00  0.00    +0.000 A 
ATOM      4  O   UNL     1     -23.565  10.318  -4.420  0.00  0.00    +0.000 OA
ATOM      5  C   UNL     1     -23.543   8.711  -6.166  0.00  0.00    +0.000 A 
ATOM      6  C   UNL     1     -24.221   8.216  -7.269  0.00  0.00    +0.000 A 
ATOM      7  C   UNL     1     -25.580   8.421  -7.401  0.00  0.00    +0.000 A 
ENDROOT
BRANCH   7   8
ATOM      8  C   UNL     1     -26.234   8.611  -8.700  0.00  0.00    +0.000 C 
ATOM      9  C   UNL     1     -25.928   7.934  -9.779  0.00  0.00    +0.000 C 
BRANCH   9  10
ATOM     10  C   UNL     1     -26.900   7.225 -10.620  0.00  0.00    +0.000 A 
ATOM     11  C   UNL     1     -27.377   5.976 -10.238  0.00  0.00    +0.000 A 
ATOM     12  C   UNL     1     -28.465   5.435 -10.904  0.00  0.00    +0.000 A 
ATOM     13  O   UNL     1     -28.657   4.057 -10.886  0.00  0.00    +0.000 OA
ATOM     14  C   UNL     1     -29.308   6.216 -11.674  0.00  0.00    +0.000 A 
ATOM     15  C   UNL     1     -29.008   7.557 -11.777  0.00  0.00    +0.000 A 
ATOM     16  O   UNL     1     -29.712   8.348 -12.662  0.00  0.00    +0.000 OA
ATOM     17  C   UNL     1     -27.841   8.033 -11.250  0.00  0.00    +0.000 A 
ENDBRANCH   9  10
ENDBRANCH   7   8
BRANCH   1  18
ATOM     18  O   UNL     1     -27.647   8.644  -6.202  0.00  0.00    +0.000 OA
BRANCH  18  25
ATOM     19  C   UNL     1     -31.617   8.099  -6.848  0.00  0.00    +0.000 C 
ATOM     20  O   UNL     1     -32.363   7.574  -5.969  0.00  0.00    +0.000 OA
ATOM     21  N   UNL     1     -30.216   8.340  -6.628  0.00  0.00    +0.000 N 
ATOM     22  C   UNL     1     -29.635   8.008  -5.385  0.00  0.00    +0.000 C 
ATOM     23  C   UNL     1     -29.380   9.532  -4.773  0.00  0.00    +0.000 C 
ATOM     24  F   UNL     1     -30.677  10.099  -5.340  0.00  0.00    +0.000 F 
ATOM     25  C   UNL     1     -28.449   9.975  -6.198  0.00  0.00    +0.000 C 
ATOM     26  C   UNL     1     -29.591   9.404  -7.232  0.00  0.00    +0.000 C 
BRANCH  19  27
ATOM     27  O   UNL     1     -32.303   8.599  -7.951  0.00  0.00    +0.000 OA
BRANCH  27  29
ATOM     28  C   UNL     1     -32.004   8.255  -9.832  0.00  0.00    +0.000 C 
ATOM     29  C   UNL     1     -32.408   7.831  -9.145  0.00  0.00    +0.000 C 
ATOM     30  C   UNL     1     -33.870   7.558  -9.421  0.00  0.00    +0.000 C 
ATOM     31  C   UNL     1     -31.672   6.522  -8.887  0.00  0.00    +0.000 C 
ENDBRANCH  27  29
ENDBRANCH  19  27
ENDBRANCH  18  25
ENDBRANCH   1  18
TORSDOF 6
ENDMDL
MODEL 6
REMARK VINA RESULT:      -6.6     13.326     16.250
REMARK  Name = 
REMARK  6 active torsions:
REMARK  status: ('A' for Active; 'I' for Inactive)
REMARK    1  A    between atoms: C_2  and  O_5
REMARK    2  A    between atoms: O_5  and  C_6
REMARK    3  A    between atoms: C_12  and  O_13
REMARK    4  A    between atoms: O_13  and  C_14
REMARK    5  A    between atoms: C_20  and  C_21
REMARK    6  A    between atoms: C_22  and  C_23
REMARK                            x       y       z     vdW  Elec       q    Type
REMARK                         _______ _______ _______ _____ _____    ______ ____
ROOT
ATOM      1  C   UNL     1     -22.925  10.095  -2.252  0.00  0.00    +0.000 A 
ATOM      2  C   UNL     1     -23.158  11.070  -1.296  0.00  0.00    +0.000 A 
ATOM      3  C   UNL     1     -23.100  12.400  -1.697  0.00  0.00    +0.000 A 
ATOM      4  O   UNL     1     -23.770  13.418  -1.059  0.00  0.00    +0.000 OA
ATOM      5  C   UNL     1     -22.343  12.715  -2.819  0.00  0.00    +0.000 A 
ATOM      6  C   UNL     1     -22.073  11.712  -3.739  0.00  0.00    +0.000 A 
ATOM      7  C   UNL     1     -22.526  10.426  -3.519  0.00  0.00    +0.000 A 
ENDROOT
BRANCH   7   8
ATOM      8  C   UNL     1     -22.941   9.533  -4.605  0.00  0.00    +0.000 C 
ATOM      9  C   UNL     1     -24.112   8.948  -4.665  0.00  0.00    +0.000 C 
BRANCH   9  10
ATOM     10  C   UNL     1     -25.007   8.994  -5.828  0.00  0.00    +0.000 A 
ATOM     11  C   UNL     1     -24.552   8.590  -7.079  0.00  0.00    +0.000 A 
ATOM     12  C   UNL     1     -25.467   8.407  -8.103  0.00  0.00    +0.000 A 
ATOM     13  O   UNL     1     -25.031   8.478  -9.423  0.00  0.00    +0.000 OA
ATOM     14  C   UNL     1     -26.819   8.259  -7.853  0.00  0.00    +0.000 A 
ATOM     15  C   UNL     1     -27.230   8.329  -6.540  0.00  0.00    +0.000 A 
ATOM     16  O   UNL     1     -28.578   8.356  -6.247  0.00  0.00    +0.000 OA
ATOM     17  C   UNL     1     -26.336   8.675  -5.568  0.00  0.00    +0.000 A 
ENDBRANCH   9  10
ENDBRANCH   7   8
BRANCH   1  18
ATOM     18  O   UNL     1     -23.006   8.786  -1.834  0.00  0.00    +0.000 OA
BRANCH  18  25
ATOM     19  C   UNL     1     -24.541   5.148  -0.892  0.00  0.00    +0.000 C 
ATOM     20  O   UNL     1     -23.839   4.096  -0.964  0.00  0.00    +0.000 OA
ATOM     21  N   UNL     1     -24.010   6.453  -1.181  0.00  0.00    +0.000 N 
ATOM     22  C   UNL     1     -22.650   6.592  -1.538  0.00  0.00    +0.000 C 
ATOM     23  C   UNL     1     -22.068   7.318  -0.160  0.00  0.00    +0.000 C 
ATOM     24  F   UNL     1     -22.949   6.502   0.778  0.00  0.00    +0.000 F 
ATOM     25  C   UNL     1     -23.253   8.609  -0.309  0.00  0.00    +0.000 C 
ATOM     26  C   UNL     1     -24.498   7.562  -0.533  0.00  0.00    +0.000 C 
BRANCH  19  27
ATOM     27  O   UNL     1     -25.797   4.955  -0.323  0.00  0.00    +0.000 OA
BRANCH  27  29
ATOM     28  C   UNL     1     -26.684   4.555  -1.997  0.00  0.00    +0.000 C 
ATOM     29  C   UNL     1     -26.890   4.508  -1.119  0.00  0.00    +0.000 C 
ATOM     30  C   UNL     1     -28.111   5.330  -0.773  0.00  0.00    +0.000 C 
ATOM     31  C   UNL     1     -27.123   3.047  -0.756  0.00  0.00    +0.000 C 
ENDBRANCH  27  29
ENDBRANCH  19  27
ENDBRANCH  18  25
ENDBRANCH   1  18
TORSDOF 6
ENDMDL
MODEL 7
REMARK VINA RESULT:      -6.6     12.706     15.389
REMARK  Name = 
REMARK  6 active torsions:
REMARK  status: ('A' for Active; 'I' for Inactive)
REMARK    1  A    between atoms: C_2  and  O_5
REMARK    2  A    between atoms: O_5  and  C_6
REMARK    3  A    between atoms: C_12  and  O_13
REMARK    4  A    between atoms: O_13  and  C_14
REMARK    5  A    between atoms: C_20  and  C_21
REMARK    6  A    between atoms: C_22  and  C_23
REMARK                            x       y       z     vdW  Elec       q    Type
REMARK                         _______ _______ _______ _____ _____    ______ ____
ROOT
ATOM      1  C   UNL     1     -23.172   8.781  -2.372  0.00  0.00    +0.000 A 
ATOM      2  C   UNL     1     -22.732   9.689  -1.424  0.00  0.00    +0.000 A 
ATOM      3  C   UNL     1     -22.505  10.998  -1.835  0.00  0.00    +0.000 A 
ATOM      4  O   UNL     1     -22.566  12.082  -0.991  0.00  0.00    +0.000 OA
ATOM      5  C   UNL     1     -22.224  11.225  -3.177  0.00  0.00    +0.000 A 
ATOM      6  C   UNL     1     -22.624  10.278  -4.107  0.00  0.00    +0.000 A 
ATOM      7  C   UNL     1     -23.261   9.123  -3.695  0.00  0.00    +0.000 A 
ENDROOT
BRANCH   7   8
ATOM      8  C   UNL     1     -24.300   8.461  -4.489  0.00  0.00    +0.000 C 
ATOM      9  C   UNL     1     -25.442   9.017  -4.810  0.00  0.00    +0.000 C 
BRANCH   9  10
ATOM     10  C   UNL     1     -25.978   9.091  -6.175  0.00  0.00    +0.000 A 
ATOM     11  C   UNL     1     -25.206   8.674  -7.254  0.00  0.00    +0.000 A 
ATOM     12  C   UNL     1     -25.806   8.518  -8.493  0.00  0.00    +0.000 A 
ATOM     13  O   UNL     1     -25.020   8.576  -9.640  0.00  0.00    +0.000 OA
ATOM     14  C   UNL     1     -27.179   8.411  -8.629  0.00  0.00    +0.000 A 
ATOM     15  C   UNL     1     -27.935   8.493  -7.480  0.00  0.00    +0.000 A 
ATOM     16  O   UNL     1     -29.310   8.561  -7.572  0.00  0.00    +0.000 OA
ATOM     17  C   UNL     1     -27.336   8.812  -6.295  0.00  0.00    +0.000 A 
ENDBRANCH   9  10
ENDBRANCH   7   8
BRANCH   1  18
ATOM     18  O   UNL     1     -23.408   7.495  -1.937  0.00  0.00    +0.000 OA
BRANCH  18  25
ATOM     19  C   UNL     1     -26.940   5.504  -2.113  0.00  0.00    +0.000 C 
ATOM     20  O   UNL     1     -26.983   4.250  -2.292  0.00  0.00    +0.000 OA
ATOM     21  N   UNL     1     -25.702   6.227  -2.007  0.00  0.00    +0.000 N 
ATOM     22  C   UNL     1     -24.475   5.529  -2.077  0.00  0.00    +0.000 C 
ATOM     23  C   UNL     1     -23.988   5.649  -0.492  0.00  0.00    +0.000 C 
ATOM     24  F   UNL     1     -25.395   5.481   0.071  0.00  0.00    +0.000 F 
ATOM     25  C   UNL     1     -24.119   7.402  -0.558  0.00  0.00    +0.000 C 
ATOM     26  C   UNL     1     -25.620   7.354  -1.226  0.00  0.00    +0.000 C 
BRANCH  19  27
ATOM     27  O   UNL     1     -28.175   6.080  -1.833  0.00  0.00    +0.000 OA
BRANCH  27  29
ATOM     28  C   UNL     1     -28.610   6.509  -3.670  0.00  0.00    +0.000 C 
ATOM     29  C   UNL     1     -28.908   6.751  -2.853  0.00  0.00    +0.000 C 
ATOM     30  C   UNL     1     -28.804   8.243  -2.625  0.00  0.00    +0.000 C 
ATOM     31  C   UNL     1     -30.357   6.301  -2.715  0.00  0.00    +0.000 C 
ENDBRANCH  27  29
ENDBRANCH  19  27
ENDBRANCH  18  25
ENDBRANCH   1  18
TORSDOF 6
ENDMDL
MODEL 8
REMARK VINA RESULT:      -6.5      3.120      6.780
REMARK  Name = 
REMARK  6 active torsions:
REMARK  status: ('A' for Active; 'I' for Inactive)
REMARK    1  A    between atoms: C_2  and  O_5
REMARK    2  A    between atoms: O_5  and  C_6
REMARK    3  A    between atoms: C_12  and  O_13
REMARK    4  A    between atoms: O_13  and  C_14
REMARK    5  A    between atoms: C_20  and  C_21
REMARK    6  A    between atoms: C_22  and  C_23
REMARK                            x       y       z     vdW  Elec       q    Type
REMARK                         _______ _______ _______ _____ _____    ______ ____
ROOT
ATOM      1  C   UNL     1     -36.186  -3.461  -6.705  0.00  0.00    +0.000 A 
ATOM      2  C   UNL     1     -36.858  -2.399  -6.123  0.00  0.00    +0.000 A 
ATOM      3  C   UNL     1     -38.107  -2.063  -6.634  0.00  0.00    +0.000 A 
ATOM      4  O   UNL     1     -39.082  -1.424  -5.903  0.00  0.00    +0.000 OA
ATOM      5  C   UNL     1     -38.394  -2.413  -7.948  0.00  0.00    +0.000 A 
ATOM      6  C   UNL     1     -37.673  -3.444  -8.532  0.00  0.00    +0.000 A 
ATOM      7  C   UNL     1     -36.673  -4.081  -7.824  0.00  0.00    +0.000 A 
ENDROOT
BRANCH   7   8
ATOM      8  C   UNL     1     -36.369  -5.507  -7.985  0.00  0.00    +0.000 C 
ATOM      9  C   UNL     1     -37.214  -6.386  -8.463  0.00  0.00    +0.000 C 
BRANCH   9  10
ATOM     10  C   UNL     1     -36.916  -7.316  -9.560  0.00  0.00    +0.000 A 
ATOM     11  C   UNL     1     -36.505  -6.831 -10.797  0.00  0.00    +0.000 A 
ATOM     12  C   UNL     1     -35.996  -7.716 -11.733  0.00  0.00    +0.000 A 
ATOM     13  O   UNL     1     -36.030  -7.372 -13.082  0.00  0.00    +0.000 OA
ATOM     14  C   UNL     1     -35.549  -8.976 -11.377  0.00  0.00    +0.000 A 
ATOM     15  C   UNL     1     -35.655  -9.331 -10.050  0.00  0.00    +0.000 A 
ATOM     16  O   UNL     1     -35.383 -10.629  -9.667  0.00  0.00    +0.000 OA
ATOM     17  C   UNL     1     -36.311  -8.509  -9.178  0.00  0.00    +0.000 A 
ENDBRANCH   9  10
ENDBRANCH   7   8
BRANCH   1  18
ATOM     18  O   UNL     1     -34.959  -3.786  -6.169  0.00  0.00    +0.000 OA
BRANCH  18  25
ATOM     19  C   UNL     1     -31.494  -4.892  -4.367  0.00  0.00    +0.000 C 
ATOM     20  O   UNL     1     -30.496  -5.286  -5.041  0.00  0.00    +0.000 OA
ATOM     21  N   UNL     1     -32.719  -4.457  -4.983  0.00  0.00    +0.000 N 
ATOM     22  C   UNL     1     -32.826  -4.437  -6.391  0.00  0.00    +0.000 C 
ATOM     23  C   UNL     1     -32.811  -2.795  -6.655  0.00  0.00    +0.000 C 
ATOM     24  F   UNL     1     -31.789  -2.515  -5.559  0.00  0.00    +0.000 F 
ATOM     25  C   UNL     1     -34.178  -2.584  -5.569  0.00  0.00    +0.000 C 
ATOM     26  C   UNL     1     -33.494  -3.493  -4.385  0.00  0.00    +0.000 C 
BRANCH  19  27
ATOM     27  O   UNL     1     -31.235  -4.730  -3.009  0.00  0.00    +0.000 OA
BRANCH  27  29
ATOM     28  C   UNL     1     -32.393  -6.114  -2.306  0.00  0.00    +0.000 C 
ATOM     29  C   UNL     1     -31.602  -5.743  -2.078  0.00  0.00    +0.000 C 
ATOM     30  C   UNL     1     -31.632  -5.139  -0.691  0.00  0.00    +0.000 C 
ATOM     31  C   UNL     1     -30.526  -6.817  -2.157  0.00  0.00    +0.000 C 
ENDBRANCH  27  29
ENDBRANCH  19  27
ENDBRANCH  18  25
ENDBRANCH   1  18
TORSDOF 6
ENDMDL
MODEL 9
REMARK VINA RESULT:      -6.5     12.179     15.138
REMARK  Name = 
REMARK  6 active torsions:
REMARK  status: ('A' for Active; 'I' for Inactive)
REMARK    1  A    between atoms: C_2  and  O_5
REMARK    2  A    between atoms: O_5  and  C_6
REMARK    3  A    between atoms: C_12  and  O_13
REMARK    4  A    between atoms: O_13  and  C_14
REMARK    5  A    between atoms: C_20  and  C_21
REMARK    6  A    between atoms: C_22  and  C_23
REMARK                            x       y       z     vdW  Elec       q    Type
REMARK                         _______ _______ _______ _____ _____    ______ ____
ROOT
ATOM      1  C   UNL     1     -25.910   7.672   2.875  0.00  0.00    +0.000 A 
ATOM      2  C   UNL     1     -25.057   8.374   3.710  0.00  0.00    +0.000 A 
ATOM      3  C   UNL     1     -25.373   8.427   5.064  0.00  0.00    +0.000 A 
ATOM      4  O   UNL     1     -24.439   8.617   6.056  0.00  0.00    +0.000 OA
ATOM      5  C   UNL     1     -26.701   8.256   5.436  0.00  0.00    +0.000 A 
ATOM      6  C   UNL     1     -27.554   7.598   4.562  0.00  0.00    +0.000 A 
ATOM      7  C   UNL     1     -27.090   7.155   3.339  0.00  0.00    +0.000 A 
ENDROOT
BRANCH   7   8
ATOM      8  C   UNL     1     -27.580   5.929   2.699  0.00  0.00    +0.000 C 
ATOM      9  C   UNL     1     -27.395   4.727   3.183  0.00  0.00    +0.000 C 
BRANCH   9  10
ATOM     10  C   UNL     1     -28.462   3.742   3.398  0.00  0.00    +0.000 A 
ATOM     11  C   UNL     1     -28.185   2.535   4.030  0.00  0.00    +0.000 A 
ATOM     12  C   UNL     1     -29.236   1.731   4.443  0.00  0.00    +0.000 A 
ATOM     13  O   UNL     1     -29.018   0.369   4.624  0.00  0.00    +0.000 OA
ATOM     14  C   UNL     1     -30.520   2.226   4.579  0.00  0.00    +0.000 A 
ATOM     15  C   UNL     1     -30.723   3.551   4.260  0.00  0.00    +0.000 A 
ATOM     16  O   UNL     1     -32.008   4.053   4.216  0.00  0.00    +0.000 OA
ATOM     17  C   UNL     1     -29.711   4.276   3.699  0.00  0.00    +0.000 A 
ENDBRANCH   9  10
ENDBRANCH   7   8
BRANCH   1  18
ATOM     18  O   UNL     1     -25.567   7.618   1.543  0.00  0.00    +0.000 OA
BRANCH  18  25
ATOM     19  C   UNL     1     -25.007   4.605  -1.120  0.00  0.00    +0.000 C 
ATOM     20  O   UNL     1     -25.261   4.757  -2.351  0.00  0.00    +0.000 OA
ATOM     21  N   UNL     1     -25.158   5.669  -0.163  0.00  0.00    +0.000 N 
ATOM     22  C   UNL     1     -25.582   6.945  -0.595  0.00  0.00    +0.000 C 
ATOM     23  C   UNL     1     -24.163   7.792  -0.415  0.00  0.00    +0.000 C 
ATOM     24  F   UNL     1     -23.283   6.637  -0.878  0.00  0.00    +0.000 F 
ATOM     25  C   UNL     1     -24.065   7.317   1.276  0.00  0.00    +0.000 C 
ATOM     26  C   UNL     1     -24.341   5.733   0.939  0.00  0.00    +0.000 C 
BRANCH  19  27
ATOM     27  O   UNL     1     -24.387   3.398  -0.812  0.00  0.00    +0.000 OA
BRANCH  27  29
ATOM     28  C   UNL     1     -25.226   1.784  -1.474  0.00  0.00    +0.000 C 
ATOM     29  C   UNL     1     -25.153   2.205  -0.679  0.00  0.00    +0.000 C 
ATOM     30  C   UNL     1     -26.503   2.558  -0.092  0.00  0.00    +0.000 C 
ATOM     31  C   UNL     1     -24.387   1.301   0.278  0.00  0.00    +0.000 C 
ENDBRANCH  27  29
ENDBRANCH  19  27
ENDBRANCH  18  25
ENDBRANCH   1  18
TORSDOF 6
ENDMDL
MODEL 10
REMARK VINA RESULT:      -6.5     11.792     15.034
REMARK  Name = 
REMARK  6 active torsions:
REMARK  status: ('A' for Active; 'I' for Inactive)
REMARK    1  A    between atoms: C_2  and  O_5
REMARK    2  A    between atoms: O_5  and  C_6
REMARK    3  A    between atoms: C_12  and  O_13
REMARK    4  A    between atoms: O_13  and  C_14
REMARK    5  A    between atoms: C_20  and  C_21
REMARK    6  A    between atoms: C_22  and  C_23
REMARK                            x       y       z     vdW  Elec       q    Type
REMARK                         _______ _______ _______ _____ _____    ______ ____
ROOT
ATOM      1  C   UNL     1     -25.219   4.897  -0.712  0.00  0.00    +0.000 A 
ATOM      2  C   UNL     1     -24.580   3.668  -0.731  0.00  0.00    +0.000 A 
ATOM      3  C   UNL     1     -25.334   2.551  -1.074  0.00  0.00    +0.000 A 
ATOM      4  O   UNL     1     -24.796   1.408  -1.619  0.00  0.00    +0.000 OA
ATOM      5  C   UNL     1     -26.709   2.600  -0.879  0.00  0.00    +0.000 A 
ATOM      6  C   UNL     1     -27.323   3.842  -0.808  0.00  0.00    +0.000 A 
ATOM      7  C   UNL     1     -26.571   4.996  -0.900  0.00  0.00    +0.000 A 
ENDROOT
BRANCH   7   8
ATOM      8  C   UNL     1     -27.070   6.222  -1.533  0.00  0.00    +0.000 C 
ATOM      9  C   UNL     1     -27.632   6.259  -2.715  0.00  0.00    +0.000 C 
BRANCH   9  10
ATOM     10  C   UNL     1     -28.930   6.882  -3.001  0.00  0.00    +0.000 A 
ATOM     11  C   UNL     1     -29.161   7.483  -4.234  0.00  0.00    +0.000 A 
ATOM     12  C   UNL     1     -30.455   7.844  -4.577  0.00  0.00    +0.000 A 
ATOM     13  O   UNL     1     -30.652   8.836  -5.532  0.00  0.00    +0.000 OA
ATOM     14  C   UNL     1     -31.555   7.319  -3.921  0.00  0.00    +0.000 A 
ATOM     15  C   UNL     1     -31.314   6.440  -2.889  0.00  0.00    +0.000 A 
ATOM     16  O   UNL     1     -32.360   6.018  -2.094  0.00  0.00    +0.000 OA
ATOM     17  C   UNL     1     -30.034   6.230  -2.462  0.00  0.00    +0.000 A 
ENDBRANCH   9  10
ENDBRANCH   7   8
BRANCH   1  18
ATOM     18  O   UNL     1     -24.448   5.991  -0.387  0.00  0.00    +0.000 OA
BRANCH  18  25
ATOM     19  C   UNL     1     -23.603   9.176  -2.757  0.00  0.00    +0.000 C 
ATOM     20  O   UNL     1     -23.449  10.337  -2.273  0.00  0.00    +0.000 OA
ATOM     21  N   UNL     1     -23.863   8.025  -1.935  0.00  0.00    +0.000 N 
ATOM     22  C   UNL     1     -23.929   8.167  -0.531  0.00  0.00    +0.000 C 
ATOM     23  C   UNL     1     -22.514   7.409  -0.101  0.00  0.00    +0.000 C 
ATOM     24  F   UNL     1     -21.730   7.950  -1.291  0.00  0.00    +0.000 F 
ATOM     25  C   UNL     1     -23.003   5.954  -0.959  0.00  0.00    +0.000 C 
ATOM     26  C   UNL     1     -23.413   6.783  -2.316  0.00  0.00    +0.000 C 
BRANCH  19  27
ATOM     27  O   UNL     1     -23.303   9.082  -4.113  0.00  0.00    +0.000 OA
BRANCH  27  29
ATOM     28  C   UNL     1     -24.320  10.234  -5.290  0.00  0.00    +0.000 C 
ATOM     29  C   UNL     1     -24.299   9.353  -5.094  0.00  0.00    +0.000 C 
ATOM     30  C   UNL     1     -25.632   8.847  -4.586  0.00  0.00    +0.000 C 
ATOM     31  C   UNL     1     -23.894   8.589  -6.348  0.00  0.00    +0.000 C 
ENDBRANCH  27  29
ENDBRANCH  19  27
ENDBRANCH  18  25
ENDBRANCH   1  18
TORSDOF 6
ENDMDL
