MODEL 1
REMARK VINA RESULT:      -7.4      0.000      0.000
REMARK  Name = 
REMARK  6 active torsions:
REMARK  status: ('A' for Active; 'I' for Inactive)
REMARK    1  A    between atoms: C_2  and  O_5
REMARK    2  A    between atoms: O_5  and  C_6
REMARK    3  A    between atoms: C_10  and  O_11
REMARK    4  A    between atoms: O_11  and  C_12
REMARK    5  A    between atoms: C_18  and  C_19
REMARK    6  A    between atoms: C_20  and  C_21
REMARK                            x       y       z     vdW  Elec       q    Type
REMARK                         _______ _______ _______ _____ _____    ______ ____
ROOT
ATOM      1  C   UNL     1     -30.863  -4.867  -4.168  0.00  0.00    +0.000 A 
ATOM      2  C   UNL     1     -29.535  -4.690  -3.889  0.00  0.00    +0.000 A 
ATOM      3  C   UNL     1     -28.658  -4.129  -4.813  0.00  0.00    +0.000 A 
ATOM      4  O   UNL     1     -27.511  -3.439  -4.407  0.00  0.00    +0.000 OA
ATOM      5  C   UNL     1     -29.136  -4.057  -6.117  0.00  0.00    +0.000 A 
ATOM      6  C   UNL     1     -30.503  -3.881  -6.309  0.00  0.00    +0.000 A 
ATOM      7  C   UNL     1     -31.384  -4.225  -5.288  0.00  0.00    +0.000 A 
ENDROOT
BRANCH   7   8
ATOM      8  C   UNL     1     -32.690  -3.555  -5.167  0.00  0.00    +0.000 C 
ATOM      9  C   UNL     1     -33.687  -4.172  -5.779  0.00  0.00    +0.000 C 
BRANCH   9  10
ATOM     10  C   UNL     1     -34.852  -3.535  -6.336  0.00  0.00    +0.000 A 
ATOM     11  C   UNL     1     -35.601  -4.048  -7.354  0.00  0.00    +0.000 A 
ATOM     12  C   UNL     1     -36.797  -3.441  -7.649  0.00  0.00    +0.000 A 
ATOM     13  O   UNL     1     -37.741  -4.109  -8.413  0.00  0.00    +0.000 OA
ATOM     14  C   UNL     1     -37.182  -2.231  -7.088  0.00  0.00    +0.000 A 
ATOM     15  C   UNL     1     -36.371  -1.658  -6.118  0.00  0.00    +0.000 A 
ATOM     16  O   UNL     1     -36.908  -0.683  -5.269  0.00  0.00    +0.000 OA
ATOM     17  C   UNL     1     -35.152  -2.255  -5.893  0.00  0.00    +0.000 A 
ENDBRANCH   9  10
ENDBRANCH   7   8
BRANCH   1  18
ATOM     18  O   UNL     1     -31.801  -5.504  -3.429  0.00  0.00    +0.000 OA
BRANCH  18  23
ATOM     19  C   UNL     1     -35.012  -8.165  -3.508  0.00  0.00    +0.000 C 
ATOM     20  O   UNL     1     -35.151  -8.632  -2.344  0.00  0.00    +0.000 OA
ATOM     21  N   UNL     1     -34.063  -7.123  -3.766  0.00  0.00    +0.000 N 
ATOM     22  C   UNL     1     -32.841  -7.339  -4.405  0.00  0.00    +0.000 C 
ATOM     23  C   UNL     1     -31.699  -7.033  -3.258  0.00  0.00    +0.000 C 
ATOM     24  C   UNL     1     -32.882  -7.102  -1.965  0.00  0.00    +0.000 C 
ATOM     25  F   UNL     1     -32.232  -5.975  -1.187  0.00  0.00    +0.000 F 
ATOM     26  C   UNL     1     -33.878  -6.060  -2.792  0.00  0.00    +0.000 C 
BRANCH  19  27
ATOM     27  O   UNL     1     -35.478  -8.950  -4.542  0.00  0.00    +0.000 OA
BRANCH  27  29
ATOM     28  C   UNL     1     -37.220  -9.275  -5.685  0.00  0.00    +0.000 C 
ATOM     29  C   UNL     1     -36.508  -8.516  -5.425  0.00  0.00    +0.000 C 
ATOM     30  C   UNL     1     -37.240  -7.326  -4.814  0.00  0.00    +0.000 C 
ATOM     31  C   UNL     1     -35.815  -7.985  -6.675  0.00  0.00    +0.000 C 
ENDBRANCH  27  29
ENDBRANCH  19  27
ENDBRANCH  18  23
ENDBRANCH   1  18
TORSDOF 6
ENDMDL
MODEL 2
REMARK VINA RESULT:      -7.2      0.859      1.817
REMARK  Name = 
REMARK  6 active torsions:
REMARK  status: ('A' for Active; 'I' for Inactive)
REMARK    1  A    between atoms: C_2  and  O_5
REMARK    2  A    between atoms: O_5  and  C_6
REMARK    3  A    between atoms: C_10  and  O_11
REMARK    4  A    between atoms: O_11  and  C_12
REMARK    5  A    between atoms: C_18  and  C_19
REMARK    6  A    between atoms: C_20  and  C_21
REMARK                            x       y       z     vdW  Elec       q    Type
REMARK                         _______ _______ _______ _____ _____    ______ ____
ROOT
ATOM      1  C   UNL     1     -30.939  -4.827  -4.945  0.00  0.00    +0.000 A 
ATOM      2  C   UNL     1     -29.820  -4.233  -4.427  0.00  0.00    +0.000 A 
ATOM      3  C   UNL     1     -28.792  -3.766  -5.241  0.00  0.00    +0.000 A 
ATOM      4  O   UNL     1     -27.964  -2.712  -4.842  0.00  0.00    +0.000 OA
ATOM      5  C   UNL     1     -28.825  -4.217  -6.556  0.00  0.00    +0.000 A 
ATOM      6  C   UNL     1     -30.065  -4.471  -7.135  0.00  0.00    +0.000 A 
ATOM      7  C   UNL     1     -31.163  -4.710  -6.314  0.00  0.00    +0.000 A 
ENDROOT
BRANCH   7   8
ATOM      8  C   UNL     1     -32.527  -4.401  -6.776  0.00  0.00    +0.000 C 
ATOM      9  C   UNL     1     -33.019  -3.260  -6.321  0.00  0.00    +0.000 C 
BRANCH   9  10
ATOM     10  C   UNL     1     -34.413  -2.982  -6.093  0.00  0.00    +0.000 A 
ATOM     11  C   UNL     1     -34.901  -2.328  -4.999  0.00  0.00    +0.000 A 
ATOM     12  C   UNL     1     -36.221  -1.950  -5.004  0.00  0.00    +0.000 A 
ATOM     13  O   UNL     1     -36.672  -0.999  -4.103  0.00  0.00    +0.000 OA
ATOM     14  C   UNL     1     -37.116  -2.365  -5.982  0.00  0.00    +0.000 A 
ATOM     15  C   UNL     1     -36.637  -3.114  -7.049  0.00  0.00    +0.000 A 
ATOM     16  O   UNL     1     -37.402  -3.201  -8.217  0.00  0.00    +0.000 OA
ATOM     17  C   UNL     1     -35.328  -3.530  -6.980  0.00  0.00    +0.000 A 
ENDBRANCH   9  10
ENDBRANCH   7   8
BRANCH   1  18
ATOM     18  O   UNL     1     -31.952  -5.434  -4.285  0.00  0.00    +0.000 OA
BRANCH  18  23
ATOM     19  C   UNL     1     -35.021  -8.174  -3.595  0.00  0.00    +0.000 C 
ATOM     20  O   UNL     1     -35.067  -8.393  -2.353  0.00  0.00    +0.000 OA
ATOM     21  N   UNL     1     -34.144  -7.173  -4.126  0.00  0.00    +0.000 N 
ATOM     22  C   UNL     1     -32.952  -7.471  -4.789  0.00  0.00    +0.000 C 
ATOM     23  C   UNL     1     -31.761  -6.889  -3.810  0.00  0.00    +0.000 C 
ATOM     24  C   UNL     1     -32.861  -6.732  -2.453  0.00  0.00    +0.000 C 
ATOM     25  F   UNL     1     -32.225  -5.444  -1.970  0.00  0.00    +0.000 F 
ATOM     26  C   UNL     1     -33.956  -5.924  -3.406  0.00  0.00    +0.000 C 
BRANCH  19  27
ATOM     27  O   UNL     1     -35.506  -9.174  -4.412  0.00  0.00    +0.000 OA
BRANCH  27  29
ATOM     28  C   UNL     1     -37.377  -8.292  -4.820  0.00  0.00    +0.000 C 
ATOM     29  C   UNL     1     -36.681  -9.013  -5.201  0.00  0.00    +0.000 C 
ATOM     30  C   UNL     1     -36.294  -8.634  -6.627  0.00  0.00    +0.000 C 
ATOM     31  C   UNL     1     -37.335 -10.387  -5.294  0.00  0.00    +0.000 C 
ENDBRANCH  27  29
ENDBRANCH  19  27
ENDBRANCH  18  23
ENDBRANCH   1  18
TORSDOF 6
ENDMDL
MODEL 3
REMARK VINA RESULT:      -6.9     28.179     32.235
REMARK  Name = 
REMARK  6 active torsions:
REMARK  status: ('A' for Active; 'I' for Inactive)
REMARK    1  A    between atoms: C_2  and  O_5
REMARK    2  A    between atoms: O_5  and  C_6
REMARK    3  A    between atoms: C_10  and  O_11
REMARK    4  A    between atoms: O_11  and  C_12
REMARK    5  A    between atoms: C_18  and  C_19
REMARK    6  A    between atoms: C_20  and  C_21
REMARK                            x       y       z     vdW  Elec       q    Type
REMARK                         _______ _______ _______ _____ _____    ______ ____
ROOT
ATOM      1  C   UNL     1     -14.399  16.028   0.999  0.00  0.00    +0.000 A 
ATOM      2  C   UNL     1     -15.214  14.960   1.262  0.00  0.00    +0.000 A 
ATOM      3  C   UNL     1     -14.797  13.895   2.054  0.00  0.00    +0.000 A 
ATOM      4  O   UNL     1     -15.710  13.122   2.780  0.00  0.00    +0.000 OA
ATOM      5  C   UNL     1     -13.429  13.831   2.292  0.00  0.00    +0.000 A 
ATOM      6  C   UNL     1     -12.715  15.025   2.357  0.00  0.00    +0.000 A 
ATOM      7  C   UNL     1     -13.243  16.167   1.761  0.00  0.00    +0.000 A 
ENDROOT
BRANCH   7   8
ATOM      8  C   UNL     1     -12.893  17.506   2.266  0.00  0.00    +0.000 C 
ATOM      9  C   UNL     1     -11.700  17.941   1.895  0.00  0.00    +0.000 C 
BRANCH   9  10
ATOM     10  C   UNL     1     -10.869  18.847   2.645  0.00  0.00    +0.000 A 
ATOM     11  C   UNL     1     -11.324  19.684   3.622  0.00  0.00    +0.000 A 
ATOM     12  C   UNL     1     -10.400  20.343   4.394  0.00  0.00    +0.000 A 
ATOM     13  O   UNL     1     -10.784  20.913   5.597  0.00  0.00    +0.000 OA
ATOM     14  C   UNL     1      -9.042  20.341   4.104  0.00  0.00    +0.000 A 
ATOM     15  C   UNL     1      -8.587  19.563   3.047  0.00  0.00    +0.000 A 
ATOM     16  O   UNL     1      -7.231  19.228   2.981  0.00  0.00    +0.000 OA
ATOM     17  C   UNL     1      -9.543  18.968   2.255  0.00  0.00    +0.000 A 
ENDBRANCH   9  10
ENDBRANCH   7   8
BRANCH   1  18
ATOM     18  O   UNL     1     -14.615  17.065   0.157  0.00  0.00    +0.000 OA
BRANCH  18  23
ATOM     19  C   UNL     1     -14.468  18.535  -3.744  0.00  0.00    +0.000 C 
ATOM     20  O   UNL     1     -15.285  19.493  -3.824  0.00  0.00    +0.000 OA
ATOM     21  N   UNL     1     -14.202  17.906  -2.484  0.00  0.00    +0.000 N 
ATOM     22  C   UNL     1     -14.709  16.655  -2.129  0.00  0.00    +0.000 C 
ATOM     23  C   UNL     1     -15.748  16.952  -0.884  0.00  0.00    +0.000 C 
ATOM     24  C   UNL     1     -15.781  18.670  -1.233  0.00  0.00    +0.000 C 
ATOM     25  F   UNL     1     -15.820  19.059   0.232  0.00  0.00    +0.000 F 
ATOM     26  C   UNL     1     -14.121  18.715  -1.279  0.00  0.00    +0.000 C 
BRANCH  19  27
ATOM     27  O   UNL     1     -14.181  17.875  -4.921  0.00  0.00    +0.000 OA
BRANCH  27  29
ATOM     28  C   UNL     1     -12.885  17.541  -6.551  0.00  0.00    +0.000 C 
ATOM     29  C   UNL     1     -13.047  18.199  -5.721  0.00  0.00    +0.000 C 
ATOM     30  C   UNL     1     -13.170  19.631  -6.229  0.00  0.00    +0.000 C 
ATOM     31  C   UNL     1     -11.840  18.187  -4.789  0.00  0.00    +0.000 C 
ENDBRANCH  27  29
ENDBRANCH  19  27
ENDBRANCH  18  23
ENDBRANCH   1  18
TORSDOF 6
ENDMDL
MODEL 4
REMARK VINA RESULT:      -6.8     28.148     32.274
REMARK  Name = 
REMARK  6 active torsions:
REMARK  status: ('A' for Active; 'I' for Inactive)
REMARK    1  A    between atoms: C_2  and  O_5
REMARK    2  A    between atoms: O_5  and  C_6
REMARK    3  A    between atoms: C_10  and  O_11
REMARK    4  A    between atoms: O_11  and  C_12
REMARK    5  A    between atoms: C_18  and  C_19
REMARK    6  A    between atoms: C_20  and  C_21
REMARK                            x       y       z     vdW  Elec       q    Type
REMARK                         _______ _______ _______ _____ _____    ______ ____
ROOT
ATOM      1  C   UNL     1     -14.477  16.074   0.983  0.00  0.00    +0.000 A 
ATOM      2  C   UNL     1     -15.324  15.037   1.269  0.00  0.00    +0.000 A 
ATOM      3  C   UNL     1     -14.932  13.965   2.064  0.00  0.00    +0.000 A 
ATOM      4  O   UNL     1     -15.858  13.231   2.812  0.00  0.00    +0.000 OA
ATOM      5  C   UNL     1     -13.562  13.857   2.281  0.00  0.00    +0.000 A 
ATOM      6  C   UNL     1     -12.808  15.026   2.324  0.00  0.00    +0.000 A 
ATOM      7  C   UNL     1     -13.306  16.179   1.726  0.00  0.00    +0.000 A 
ENDROOT
BRANCH   7   8
ATOM      8  C   UNL     1     -12.902  17.510   2.212  0.00  0.00    +0.000 C 
ATOM      9  C   UNL     1     -11.687  17.886   1.849  0.00  0.00    +0.000 C 
BRANCH   9  10
ATOM     10  C   UNL     1     -10.825  18.766   2.594  0.00  0.00    +0.000 A 
ATOM     11  C   UNL     1      -9.554  19.099   2.224  0.00  0.00    +0.000 A 
ATOM     12  C   UNL     1      -8.919  20.103   2.913  0.00  0.00    +0.000 A 
ATOM     13  O   UNL     1      -7.797  20.710   2.372  0.00  0.00    +0.000 OA
ATOM     14  C   UNL     1      -9.437  20.658   4.075  0.00  0.00    +0.000 A 
ATOM     15  C   UNL     1     -10.693  20.251   4.507  0.00  0.00    +0.000 A 
ATOM     16  O   UNL     1     -11.396  21.053   5.412  0.00  0.00    +0.000 OA
ATOM     17  C   UNL     1     -11.272  19.200   3.834  0.00  0.00    +0.000 A 
ENDBRANCH   9  10
ENDBRANCH   7   8
BRANCH   1  18
ATOM     18  O   UNL     1     -14.671  17.110   0.134  0.00  0.00    +0.000 OA
BRANCH  18  23
ATOM     19  C   UNL     1     -14.316  18.702  -3.704  0.00  0.00    +0.000 C 
ATOM     20  O   UNL     1     -15.183  19.611  -3.824  0.00  0.00    +0.000 OA
ATOM     21  N   UNL     1     -14.110  18.053  -2.444  0.00  0.00    +0.000 N 
ATOM     22  C   UNL     1     -14.563  16.764  -2.161  0.00  0.00    +0.000 C 
ATOM     23  C   UNL     1     -15.711  16.959  -0.995  0.00  0.00    +0.000 C 
ATOM     24  C   UNL     1     -15.824  18.682  -1.302  0.00  0.00    +0.000 C 
ATOM     25  F   UNL     1     -16.002  19.023   0.164  0.00  0.00    +0.000 F 
ATOM     26  C   UNL     1     -14.172  18.829  -1.216  0.00  0.00    +0.000 C 
BRANCH  19  27
ATOM     27  O   UNL     1     -13.898  18.097  -4.872  0.00  0.00    +0.000 OA
BRANCH  27  29
ATOM     28  C   UNL     1     -11.790  18.139  -4.858  0.00  0.00    +0.000 C 
ATOM     29  C   UNL     1     -12.636  18.382  -5.470  0.00  0.00    +0.000 C 
ATOM     30  C   UNL     1     -12.522  17.649  -6.802  0.00  0.00    +0.000 C 
ATOM     31  C   UNL     1     -12.641  19.869  -5.806  0.00  0.00    +0.000 C 
ENDBRANCH  27  29
ENDBRANCH  19  27
ENDBRANCH  18  23
ENDBRANCH   1  18
TORSDOF 6
ENDMDL
MODEL 5
REMARK VINA RESULT:      -6.6     14.764     18.150
REMARK  Name = 
REMARK  6 active torsions:
REMARK  status: ('A' for Active; 'I' for Inactive)
REMARK    1  A    between atoms: C_2  and  O_5
REMARK    2  A    between atoms: O_5  and  C_6
REMARK    3  A    between atoms: C_10  and  O_11
REMARK    4  A    between atoms: O_11  and  C_12
REMARK    5  A    between atoms: C_18  and  C_19
REMARK    6  A    between atoms: C_20  and  C_21
REMARK                            x       y       z     vdW  Elec       q    Type
REMARK                         _______ _______ _______ _____ _____    ______ ____
ROOT
ATOM      1  C   UNL     1     -25.309   7.887  -3.981  0.00  0.00    +0.000 A 
ATOM      2  C   UNL     1     -26.337   7.503  -3.163  0.00  0.00    +0.000 A 
ATOM      3  C   UNL     1     -26.109   6.946  -1.908  0.00  0.00    +0.000 A 
ATOM      4  O   UNL     1     -27.042   7.067  -0.873  0.00  0.00    +0.000 OA
ATOM      5  C   UNL     1     -24.806   6.519  -1.676  0.00  0.00    +0.000 A 
ATOM      6  C   UNL     1     -23.766   7.209  -2.293  0.00  0.00    +0.000 A 
ATOM      7  C   UNL     1     -24.034   7.969  -3.429  0.00  0.00    +0.000 A 
ENDROOT
BRANCH   7   8
ATOM      8  C   UNL     1     -23.198   9.134  -3.765  0.00  0.00    +0.000 C 
ATOM      9  C   UNL     1     -22.665   9.751  -2.723  0.00  0.00    +0.000 C 
BRANCH   9  10
ATOM     10  C   UNL     1     -22.340  11.152  -2.656  0.00  0.00    +0.000 A 
ATOM     11  C   UNL     1     -21.942  11.905  -3.722  0.00  0.00    +0.000 A 
ATOM     12  C   UNL     1     -21.861  13.266  -3.561  0.00  0.00    +0.000 A 
ATOM     13  O   UNL     1     -21.809  14.092  -4.672  0.00  0.00    +0.000 OA
ATOM     14  C   UNL     1     -21.982  13.883  -2.323  0.00  0.00    +0.000 A 
ATOM     15  C   UNL     1     -22.294  13.103  -1.217  0.00  0.00    +0.000 A 
ATOM     16  O   UNL     1     -22.806  13.720  -0.071  0.00  0.00    +0.000 OA
ATOM     17  C   UNL     1     -22.303  11.740  -1.399  0.00  0.00    +0.000 A 
ENDBRANCH   9  10
ENDBRANCH   7   8
BRANCH   1  18
ATOM     18  O   UNL     1     -25.369   8.323  -5.261  0.00  0.00    +0.000 OA
BRANCH  18  23
ATOM     19  C   UNL     1     -26.814   8.626  -9.162  0.00  0.00    +0.000 C 
ATOM     20  O   UNL     1     -26.594   9.802  -9.562  0.00  0.00    +0.000 OA
ATOM     21  N   UNL     1     -26.313   8.181  -7.895  0.00  0.00    +0.000 N 
ATOM     22  C   UNL     1     -27.116   8.025  -6.765  0.00  0.00    +0.000 C 
ATOM     23  C   UNL     1     -26.584   9.165  -5.701  0.00  0.00    +0.000 C 
ATOM     24  C   UNL     1     -25.706  10.021  -6.954  0.00  0.00    +0.000 C 
ATOM     25  F   UNL     1     -24.548  10.361  -6.037  0.00  0.00    +0.000 F 
ATOM     26  C   UNL     1     -24.994   8.605  -7.453  0.00  0.00    +0.000 C 
BRANCH  19  27
ATOM     27  O   UNL     1     -27.860   7.959  -9.766  0.00  0.00    +0.000 OA
BRANCH  27  29
ATOM     28  C   UNL     1     -27.992   7.656 -11.848  0.00  0.00    +0.000 C 
ATOM     29  C   UNL     1     -27.687   7.173 -10.941  0.00  0.00    +0.000 C 
ATOM     30  C   UNL     1     -26.228   6.746 -11.063  0.00  0.00    +0.000 C 
ATOM     31  C   UNL     1     -28.484   5.890 -10.728  0.00  0.00    +0.000 C 
ENDBRANCH  27  29
ENDBRANCH  19  27
ENDBRANCH  18  23
ENDBRANCH   1  18
TORSDOF 6
ENDMDL
MODEL 6
REMARK VINA RESULT:      -6.5     30.160     32.883
REMARK  Name = 
REMARK  6 active torsions:
REMARK  status: ('A' for Active; 'I' for Inactive)
REMARK    1  A    between atoms: C_2  and  O_5
REMARK    2  A    between atoms: O_5  and  C_6
REMARK    3  A    between atoms: C_10  and  O_11
REMARK    4  A    between atoms: O_11  and  C_12
REMARK    5  A    between atoms: C_18  and  C_19
REMARK    6  A    between atoms: C_20  and  C_21
REMARK                            x       y       z     vdW  Elec       q    Type
REMARK                         _______ _______ _______ _____ _____    ______ ____
ROOT
ATOM      1  C   UNL     1     -18.976  12.781  16.753  0.00  0.00    +0.000 A 
ATOM      2  C   UNL     1     -18.026  11.832  17.018  0.00  0.00    +0.000 A 
ATOM      3  C   UNL     1     -16.938  11.625  16.175  0.00  0.00    +0.000 A 
ATOM      4  O   UNL     1     -15.726  11.118  16.656  0.00  0.00    +0.000 OA
ATOM      5  C   UNL     1     -17.043  12.206  14.916  0.00  0.00    +0.000 A 
ATOM      6  C   UNL     1     -17.758  13.395  14.797  0.00  0.00    +0.000 A 
ATOM      7  C   UNL     1     -18.693  13.728  15.772  0.00  0.00    +0.000 A 
ENDROOT
BRANCH   7   8
ATOM      8  C   UNL     1     -19.026  15.137  16.043  0.00  0.00    +0.000 C 
ATOM      9  C   UNL     1     -18.073  16.000  15.728  0.00  0.00    +0.000 C 
BRANCH   9  10
ATOM     10  C   UNL     1     -17.842  17.266  16.374  0.00  0.00    +0.000 A 
ATOM     11  C   UNL     1     -17.339  17.409  17.634  0.00  0.00    +0.000 A 
ATOM     12  C   UNL     1     -16.979  18.667  18.049  0.00  0.00    +0.000 A 
ATOM     13  O   UNL     1     -16.156  18.822  19.153  0.00  0.00    +0.000 OA
ATOM     14  C   UNL     1     -17.277  19.811  17.321  0.00  0.00    +0.000 A 
ATOM     15  C   UNL     1     -17.878  19.672  16.077  0.00  0.00    +0.000 A 
ATOM     16  O   UNL     1     -17.825  20.737  15.171  0.00  0.00    +0.000 OA
ATOM     17  C   UNL     1     -18.284  18.407  15.720  0.00  0.00    +0.000 A 
ENDBRANCH   9  10
ENDBRANCH   7   8
BRANCH   1  18
ATOM     18  O   UNL     1     -20.140  13.012  17.403  0.00  0.00    +0.000 OA
BRANCH  18  23
ATOM     19  C   UNL     1     -23.641  11.755  19.290  0.00  0.00    +0.000 C 
ATOM     20  O   UNL     1     -23.969  12.646  20.121  0.00  0.00    +0.000 OA
ATOM     21  N   UNL     1     -22.542  11.963  18.395  0.00  0.00    +0.000 N 
ATOM     22  C   UNL     1     -21.294  11.359  18.559  0.00  0.00    +0.000 C 
ATOM     23  C   UNL     1     -20.257  12.598  18.884  0.00  0.00    +0.000 C 
ATOM     24  C   UNL     1     -21.577  13.700  19.227  0.00  0.00    +0.000 C 
ATOM     25  F   UNL     1     -20.877  14.881  18.584  0.00  0.00    +0.000 F 
ATOM     26  C   UNL     1     -22.329  13.276  17.808  0.00  0.00    +0.000 C 
BRANCH  19  27
ATOM     27  O   UNL     1     -24.085  10.476  19.556  0.00  0.00    +0.000 OA
BRANCH  27  29
ATOM     28  C   UNL     1     -25.521  10.410  18.013  0.00  0.00    +0.000 C 
ATOM     29  C   UNL     1     -25.235   9.921  18.923  0.00  0.00    +0.000 C 
ATOM     30  C   UNL     1     -25.005   8.440  18.648  0.00  0.00    +0.000 C 
ATOM     31  C   UNL     1     -26.368   9.989  19.942  0.00  0.00    +0.000 C 
ENDBRANCH  27  29
ENDBRANCH  19  27
ENDBRANCH  18  23
ENDBRANCH   1  18
TORSDOF 6
ENDMDL
MODEL 7
REMARK VINA RESULT:      -6.5     12.902     15.590
REMARK  Name = 
REMARK  6 active torsions:
REMARK  status: ('A' for Active; 'I' for Inactive)
REMARK    1  A    between atoms: C_2  and  O_5
REMARK    2  A    between atoms: O_5  and  C_6
REMARK    3  A    between atoms: C_10  and  O_11
REMARK    4  A    between atoms: O_11  and  C_12
REMARK    5  A    between atoms: C_18  and  C_19
REMARK    6  A    between atoms: C_20  and  C_21
REMARK                            x       y       z     vdW  Elec       q    Type
REMARK                         _______ _______ _______ _____ _____    ______ ____
ROOT
ATOM      1  C   UNL     1     -24.634   9.101  -3.121  0.00  0.00    +0.000 A 
ATOM      2  C   UNL     1     -24.383  10.303  -2.516  0.00  0.00    +0.000 A 
ATOM      3  C   UNL     1     -23.422  11.185  -3.002  0.00  0.00    +0.000 A 
ATOM      4  O   UNL     1     -23.521  12.564  -2.792  0.00  0.00    +0.000 OA
ATOM      5  C   UNL     1     -22.534  10.644  -3.926  0.00  0.00    +0.000 A 
ATOM      6  C   UNL     1     -22.992   9.633  -4.767  0.00  0.00    +0.000 A 
ATOM      7  C   UNL     1     -24.110   8.892  -4.393  0.00  0.00    +0.000 A 
ENDROOT
BRANCH   7   8
ATOM      8  C   UNL     1     -24.971   8.269  -5.412  0.00  0.00    +0.000 C 
ATOM      9  C   UNL     1     -24.714   8.642  -6.656  0.00  0.00    +0.000 C 
BRANCH   9  10
ATOM     10  C   UNL     1     -25.675   8.703  -7.727  0.00  0.00    +0.000 A 
ATOM     11  C   UNL     1     -26.338   9.834  -8.107  0.00  0.00    +0.000 A 
ATOM     12  C   UNL     1     -27.069   9.797  -9.268  0.00  0.00    +0.000 A 
ATOM     13  O   UNL     1     -27.463  10.980  -9.875  0.00  0.00    +0.000 OA
ATOM     14  C   UNL     1     -27.312   8.622  -9.965  0.00  0.00    +0.000 A 
ATOM     15  C   UNL     1     -26.713   7.449  -9.524  0.00  0.00    +0.000 A 
ATOM     16  O   UNL     1     -26.609   6.364 -10.402  0.00  0.00    +0.000 OA
ATOM     17  C   UNL     1     -26.042   7.506  -8.324  0.00  0.00    +0.000 A 
ENDBRANCH   9  10
ENDBRANCH   7   8
BRANCH   1  18
ATOM     18  O   UNL     1     -25.439   8.098  -2.700  0.00  0.00    +0.000 OA
BRANCH  18  23
ATOM     19  C   UNL     1     -27.458   5.002  -0.768  0.00  0.00    +0.000 C 
ATOM     20  O   UNL     1     -28.665   5.349  -0.646  0.00  0.00    +0.000 OA
ATOM     21  N   UNL     1     -26.539   5.812  -1.510  0.00  0.00    +0.000 N 
ATOM     22  C   UNL     1     -25.572   6.621  -0.911  0.00  0.00    +0.000 C 
ATOM     23  C   UNL     1     -26.021   8.164  -1.273  0.00  0.00    +0.000 C 
ATOM     24  C   UNL     1     -27.626   7.654  -1.760  0.00  0.00    +0.000 C 
ATOM     25  F   UNL     1     -27.695   8.649  -2.902  0.00  0.00    +0.000 F 
ATOM     26  C   UNL     1     -26.980   6.470  -2.729  0.00  0.00    +0.000 C 
BRANCH  19  27
ATOM     27  O   UNL     1     -26.989   4.084   0.149  0.00  0.00    +0.000 OA
BRANCH  27  29
ATOM     28  C   UNL     1     -26.987   2.426  -1.153  0.00  0.00    +0.000 C 
ATOM     29  C   UNL     1     -26.577   2.773  -0.225  0.00  0.00    +0.000 C 
ATOM     30  C   UNL     1     -25.055   2.712  -0.293  0.00  0.00    +0.000 C 
ATOM     31  C   UNL     1     -26.984   1.847   0.916  0.00  0.00    +0.000 C 
ENDBRANCH  27  29
ENDBRANCH  19  27
ENDBRANCH  18  23
ENDBRANCH   1  18
TORSDOF 6
ENDMDL
MODEL 8
REMARK VINA RESULT:      -6.2     33.714     36.401
REMARK  Name = 
REMARK  6 active torsions:
REMARK  status: ('A' for Active; 'I' for Inactive)
REMARK    1  A    between atoms: C_2  and  O_5
REMARK    2  A    between atoms: O_5  and  C_6
REMARK    3  A    between atoms: C_10  and  O_11
REMARK    4  A    between atoms: O_11  and  C_12
REMARK    5  A    between atoms: C_18  and  C_19
REMARK    6  A    between atoms: C_20  and  C_21
REMARK                            x       y       z     vdW  Elec       q    Type
REMARK                         _______ _______ _______ _____ _____    ______ ____
ROOT
ATOM      1  C   UNL     1      -0.884   3.298  -7.771  0.00  0.00    +0.000 A 
ATOM      2  C   UNL     1      -1.258   2.232  -8.544  0.00  0.00    +0.000 A 
ATOM      3  C   UNL     1      -0.674   0.977  -8.397  0.00  0.00    +0.000 A 
ATOM      4  O   UNL     1      -1.365  -0.194  -8.725  0.00  0.00    +0.000 OA
ATOM      5  C   UNL     1       0.503   0.953  -7.658  0.00  0.00    +0.000 A 
ATOM      6  C   UNL     1       0.655   1.879  -6.629  0.00  0.00    +0.000 A 
ATOM      7  C   UNL     1      -0.107   3.044  -6.645  0.00  0.00    +0.000 A 
ENDROOT
BRANCH   7   8
ATOM      8  C   UNL     1      -0.445   3.736  -5.390  0.00  0.00    +0.000 C 
ATOM      9  C   UNL     1       0.397   4.697  -5.045  0.00  0.00    +0.000 C 
BRANCH   9  10
ATOM     10  C   UNL     1       0.686   5.112  -3.697  0.00  0.00    +0.000 A 
ATOM     11  C   UNL     1      -0.077   4.797  -2.610  0.00  0.00    +0.000 A 
ATOM     12  C   UNL     1       0.421   5.083  -1.363  0.00  0.00    +0.000 A 
ATOM     13  O   UNL     1      -0.133   4.482  -0.244  0.00  0.00    +0.000 OA
ATOM     14  C   UNL     1       1.568   5.840  -1.169  0.00  0.00    +0.000 A 
ATOM     15  C   UNL     1       2.297   6.244  -2.280  0.00  0.00    +0.000 A 
ATOM     16  O   UNL     1       3.627   6.644  -2.115  0.00  0.00    +0.000 OA
ATOM     17  C   UNL     1       1.738   5.998  -3.513  0.00  0.00    +0.000 A 
ENDBRANCH   9  10
ENDBRANCH   7   8
BRANCH   1  18
ATOM     18  O   UNL     1      -1.267   4.592  -7.880  0.00  0.00    +0.000 OA
BRANCH  18  23
ATOM     19  C   UNL     1      -0.195   8.435  -9.097  0.00  0.00    +0.000 C 
ATOM     20  O   UNL     1      -1.258   9.087  -9.287  0.00  0.00    +0.000 OA
ATOM     21  N   UNL     1      -0.240   7.112  -8.548  0.00  0.00    +0.000 N 
ATOM     22  C   UNL     1      -0.047   5.958  -9.309  0.00  0.00    +0.000 C 
ATOM     23  C   UNL     1      -1.499   5.181  -9.286  0.00  0.00    +0.000 C 
ATOM     24  C   UNL     1      -2.329   6.609  -8.696  0.00  0.00    +0.000 C 
ATOM     25  F   UNL     1      -3.251   5.812  -7.794  0.00  0.00    +0.000 F 
ATOM     26  C   UNL     1      -1.195   6.800  -7.497  0.00  0.00    +0.000 C 
BRANCH  19  27
ATOM     27  O   UNL     1       0.916   8.856  -9.797  0.00  0.00    +0.000 OA
BRANCH  27  29
ATOM     28  C   UNL     1       2.414  10.337  -9.698  0.00  0.00    +0.000 C 
ATOM     29  C   UNL     1       2.021   9.496  -9.163  0.00  0.00    +0.000 C 
ATOM     30  C   UNL     1       1.623   9.933  -7.758  0.00  0.00    +0.000 C 
ATOM     31  C   UNL     1       3.096   8.429  -8.983  0.00  0.00    +0.000 C 
ENDBRANCH  27  29
ENDBRANCH  19  27
ENDBRANCH  18  23
ENDBRANCH   1  18
TORSDOF 6
ENDMDL
MODEL 9
REMARK VINA RESULT:      -6.2     16.417     20.347
REMARK  Name = 
REMARK  6 active torsions:
REMARK  status: ('A' for Active; 'I' for Inactive)
REMARK    1  A    between atoms: C_2  and  O_5
REMARK    2  A    between atoms: O_5  and  C_6
REMARK    3  A    between atoms: C_10  and  O_11
REMARK    4  A    between atoms: O_11  and  C_12
REMARK    5  A    between atoms: C_18  and  C_19
REMARK    6  A    between atoms: C_20  and  C_21
REMARK                            x       y       z     vdW  Elec       q    Type
REMARK                         _______ _______ _______ _____ _____    ______ ____
ROOT
ATOM      1  C   UNL     1     -25.823  10.180  -6.608  0.00  0.00    +0.000 A 
ATOM      2  C   UNL     1     -27.140  10.011  -6.940  0.00  0.00    +0.000 A 
ATOM      3  C   UNL     1     -27.555   9.010  -7.813  0.00  0.00    +0.000 A 
ATOM      4  O   UNL     1     -28.840   8.461  -7.739  0.00  0.00    +0.000 OA
ATOM      5  C   UNL     1     -26.543   8.412  -8.556  0.00  0.00    +0.000 A 
ATOM      6  C   UNL     1     -25.278   8.310  -7.983  0.00  0.00    +0.000 A 
ATOM      7  C   UNL     1     -24.933   9.162  -6.939  0.00  0.00    +0.000 A 
ENDROOT
BRANCH   7   8
ATOM      8  C   UNL     1     -23.932   8.755  -5.938  0.00  0.00    +0.000 C 
ATOM      9  C   UNL     1     -24.367   7.880  -5.046  0.00  0.00    +0.000 C 
BRANCH   9  10
ATOM     10  C   UNL     1     -23.891   7.756  -3.692  0.00  0.00    +0.000 A 
ATOM     11  C   UNL     1     -23.890   6.594  -2.977  0.00  0.00    +0.000 A 
ATOM     12  C   UNL     1     -23.223   6.571  -1.777  0.00  0.00    +0.000 A 
ATOM     13  O   UNL     1     -22.895   5.359  -1.192  0.00  0.00    +0.000 OA
ATOM     14  C   UNL     1     -22.715   7.717  -1.180  0.00  0.00    +0.000 A 
ATOM     15  C   UNL     1     -22.801   8.921  -1.867  0.00  0.00    +0.000 A 
ATOM     16  O   UNL     1     -21.969   9.981  -1.490  0.00  0.00    +0.000 OA
ATOM     17  C   UNL     1     -23.531   8.922  -3.033  0.00  0.00    +0.000 A 
ENDBRANCH   9  10
ENDBRANCH   7   8
BRANCH   1  18
ATOM     18  O   UNL     1     -25.258  11.172  -5.881  0.00  0.00    +0.000 OA
BRANCH  18  23
ATOM     19  C   UNL     1     -23.649  14.876  -4.837  0.00  0.00    +0.000 C 
ATOM     20  O   UNL     1     -23.995  15.123  -3.649  0.00  0.00    +0.000 OA
ATOM     21  N   UNL     1     -23.948  13.609  -5.434  0.00  0.00    +0.000 N 
ATOM     22  C   UNL     1     -24.963  13.424  -6.375  0.00  0.00    +0.000 C 
ATOM     23  C   UNL     1     -26.070  12.459  -5.627  0.00  0.00    +0.000 C 
ATOM     24  C   UNL     1     -25.361  12.755  -4.051  0.00  0.00    +0.000 C 
ATOM     25  F   UNL     1     -25.592  11.332  -3.580  0.00  0.00    +0.000 F 
ATOM     26  C   UNL     1     -23.849  12.396  -4.639  0.00  0.00    +0.000 C 
BRANCH  19  27
ATOM     27  O   UNL     1     -23.369  15.968  -5.632  0.00  0.00    +0.000 OA
BRANCH  27  29
ATOM     28  C   UNL     1     -21.922  16.841  -6.894  0.00  0.00    +0.000 C 
ATOM     29  C   UNL     1     -22.035  16.365  -5.940  0.00  0.00    +0.000 C 
ATOM     30  C   UNL     1     -21.511  17.291  -4.849  0.00  0.00    +0.000 C 
ATOM     31  C   UNL     1     -21.179  15.105  -5.869  0.00  0.00    +0.000 C 
ENDBRANCH  27  29
ENDBRANCH  19  27
ENDBRANCH  18  23
ENDBRANCH   1  18
TORSDOF 6
ENDMDL
MODEL 10
REMARK VINA RESULT:      -6.0     33.502     37.414
REMARK  Name = 
REMARK  6 active torsions:
REMARK  status: ('A' for Active; 'I' for Inactive)
REMARK    1  A    between atoms: C_2  and  O_5
REMARK    2  A    between atoms: O_5  and  C_6
REMARK    3  A    between atoms: C_10  and  O_11
REMARK    4  A    between atoms: O_11  and  C_12
REMARK    5  A    between atoms: C_18  and  C_19
REMARK    6  A    between atoms: C_20  and  C_21
REMARK                            x       y       z     vdW  Elec       q    Type
REMARK                         _______ _______ _______ _____ _____    ______ ____
ROOT
ATOM      1  C   UNL     1     -11.752  19.535 -22.491  0.00  0.00    +0.000 A 
ATOM      2  C   UNL     1     -12.262  19.217 -23.721  0.00  0.00    +0.000 A 
ATOM      3  C   UNL     1     -11.783  19.803 -24.889  0.00  0.00    +0.000 A 
ATOM      4  O   UNL     1     -11.853  19.144 -26.120  0.00  0.00    +0.000 OA
ATOM      5  C   UNL     1     -10.998  20.936 -24.706  0.00  0.00    +0.000 A 
ATOM      6  C   UNL     1     -10.218  21.019 -23.555  0.00  0.00    +0.000 A 
ATOM      7  C   UNL     1     -10.558  20.248 -22.447  0.00  0.00    +0.000 A 
ENDROOT
BRANCH   7   8
ATOM      8  C   UNL     1      -9.529  19.831 -21.480  0.00  0.00    +0.000 C 
ATOM      9  C   UNL     1      -8.882  20.828 -20.897  0.00  0.00    +0.000 C 
BRANCH   9  10
ATOM     10  C   UNL     1      -7.525  20.779 -20.417  0.00  0.00    +0.000 A 
ATOM     11  C   UNL     1      -6.500  21.525 -20.921  0.00  0.00    +0.000 A 
ATOM     12  C   UNL     1      -5.307  21.532 -20.241  0.00  0.00    +0.000 A 
ATOM     13  O   UNL     1      -4.370  22.520 -20.499  0.00  0.00    +0.000 OA
ATOM     14  C   UNL     1      -5.044  20.676 -19.180  0.00  0.00    +0.000 A 
ATOM     15  C   UNL     1      -6.060  19.845 -18.725  0.00  0.00    +0.000 A 
ATOM     16  O   UNL     1      -5.961  19.284 -17.448  0.00  0.00    +0.000 OA
ATOM     17  C   UNL     1      -7.218  19.815 -19.467  0.00  0.00    +0.000 A 
ENDBRANCH   9  10
ENDBRANCH   7   8
BRANCH   1  18
ATOM     18  O   UNL     1     -12.192  19.147 -21.272  0.00  0.00    +0.000 OA
BRANCH  18  23
ATOM     19  C   UNL     1     -14.927  18.187 -18.272  0.00  0.00    +0.000 C 
ATOM     20  O   UNL     1     -14.409  17.288 -17.555  0.00  0.00    +0.000 OA
ATOM     21  N   UNL     1     -14.170  18.814 -19.315  0.00  0.00    +0.000 N 
ATOM     22  C   UNL     1     -14.351  18.532 -20.670  0.00  0.00    +0.000 C 
ATOM     23  C   UNL     1     -12.950  17.809 -21.148  0.00  0.00    +0.000 C 
ATOM     24  C   UNL     1     -12.452  17.527 -19.490  0.00  0.00    +0.000 C 
ATOM     25  F   UNL     1     -10.992  17.812 -19.784  0.00  0.00    +0.000 F 
ATOM     26  C   UNL     1     -12.763  19.112 -19.104  0.00  0.00    +0.000 C 
BRANCH  19  27
ATOM     27  O   UNL     1     -16.306  18.237 -18.292  0.00  0.00    +0.000 OA
BRANCH  27  29
ATOM     28  C   UNL     1     -17.868  19.025 -17.115  0.00  0.00    +0.000 C 
ATOM     29  C   UNL     1     -17.039  19.320 -17.725  0.00  0.00    +0.000 C 
ATOM     30  C   UNL     1     -16.101  20.203 -16.909  0.00  0.00    +0.000 C 
ATOM     31  C   UNL     1     -17.515  20.179 -18.892  0.00  0.00    +0.000 C 
ENDBRANCH  27  29
ENDBRANCH  19  27
ENDBRANCH  18  23
ENDBRANCH   1  18
TORSDOF 6
ENDMDL
