MODEL 1
REMARK VINA RESULT:      -6.2      0.000      0.000
REMARK  Name = 
REMARK  5 active torsions:
REMARK  status: ('A' for Active; 'I' for Inactive)
REMARK    1  A    between atoms: C_5  and  C_6
REMARK    2  A    between atoms: C_7  and  C_8
REMARK    3  A    between atoms: C_16  and  O_17
REMARK    4  A    between atoms: O_17  and  C_18
REMARK    5  A    between atoms: N_21  and  C_22
REMARK                            x       y       z     vdW  Elec       q    Type
REMARK                         _______ _______ _______ _____ _____    ______ ____
ROOT
ATOM      1  O   UNL     1     -28.689  -4.682  -3.055  0.00  0.00    +0.000 OA
ATOM      2  C   UNL     1     -29.716  -5.201  -3.407  0.00  0.00    +0.000 A 
ATOM      3  C   UNL     1     -29.784  -6.587  -3.456  0.00  0.00    +0.000 A 
ATOM      4  C   UNL     1     -30.952  -7.269  -3.713  0.00  0.00    +0.000 A 
ATOM      5  C   UNL     1     -32.025  -6.552  -4.229  0.00  0.00    +0.000 A 
ATOM      6  C   UNL     1     -32.003  -5.163  -4.220  0.00  0.00    +0.000 A 
ATOM      7  C   UNL     1     -30.864  -4.520  -3.769  0.00  0.00    +0.000 A 
ENDROOT
BRANCH   5   8
ATOM      8  C   UNL     1     -33.367  -7.149  -4.237  0.00  0.00    +0.000 C 
ATOM      9  C   UNL     1     -34.194  -6.901  -3.227  0.00  0.00    +0.000 C 
BRANCH   9  10
ATOM     10  C   UNL     1     -35.622  -6.787  -3.453  0.00  0.00    +0.000 A 
ATOM     11  C   UNL     1     -36.450  -7.860  -3.282  0.00  0.00    +0.000 A 
ATOM     12  C   UNL     1     -37.819  -7.692  -3.426  0.00  0.00    +0.000 A 
ATOM     13  O   UNL     1     -38.596  -8.833  -3.501  0.00  0.00    +0.000 OA
ATOM     14  C   UNL     1     -38.383  -6.441  -3.472  0.00  0.00    +0.000 A 
ATOM     15  C   UNL     1     -37.557  -5.356  -3.717  0.00  0.00    +0.000 A 
ATOM     16  O   UNL     1     -38.136  -4.130  -4.017  0.00  0.00    +0.000 OA
ATOM     17  C   UNL     1     -36.182  -5.560  -3.740  0.00  0.00    +0.000 A 
ENDBRANCH   9  10
ENDBRANCH   5   8
BRANCH   6  18
ATOM     18  O   UNL     1     -32.897  -4.433  -5.011  0.00  0.00    +0.000 OA
BRANCH  18  19
ATOM     19  C   UNL     1     -32.049  -3.772  -6.144  0.00  0.00    +0.000 C 
ATOM     20  C   UNL     1     -33.024  -2.420  -6.183  0.00  0.00    +0.000 C 
ATOM     21  C   UNL     1     -34.367  -3.053  -6.175  0.00  0.00    +0.000 C 
ATOM     22  N   UNL     1     -34.260  -4.319  -6.839  0.00  0.00    +0.000 N 
ATOM     23  C   UNL     1     -32.937  -4.503  -7.348  0.00  0.00    +0.000 C 
BRANCH  22  24
ATOM     24  C   UNL     1     -35.362  -5.061  -7.305  0.00  0.00    +0.000 A 
ATOM     25  C   UNL     1     -36.577  -4.439  -7.565  0.00  0.00    +0.000 A 
ATOM     26  C   UNL     1     -37.767  -5.109  -7.521  0.00  0.00    +0.000 A 
ATOM     27  N   UNL     1     -37.795  -6.367  -7.072  0.00  0.00    +0.000 NA
ATOM     28  C   UNL     1     -36.624  -7.047  -7.077  0.00  0.00    +0.000 A 
ATOM     29 CL   UNL     1     -36.723  -8.793  -6.949  0.00  0.00    +0.000 Cl
ATOM     30  N   UNL     1     -35.435  -6.411  -7.219  0.00  0.00    +0.000 NA
ENDBRANCH  22  24
ENDBRANCH  18  19
ENDBRANCH   6  18
TORSDOF 5
ENDMDL
MODEL 2
REMARK VINA RESULT:      -6.2     37.527     39.233
REMARK  Name = 
REMARK  5 active torsions:
REMARK  status: ('A' for Active; 'I' for Inactive)
REMARK    1  A    between atoms: C_5  and  C_6
REMARK    2  A    between atoms: C_7  and  C_8
REMARK    3  A    between atoms: C_16  and  O_17
REMARK    4  A    between atoms: O_17  and  C_18
REMARK    5  A    between atoms: N_21  and  C_22
REMARK                            x       y       z     vdW  Elec       q    Type
REMARK                         _______ _______ _______ _____ _____    ______ ____
ROOT
ATOM      1  O   UNL     1     -12.648   2.243 -33.065  0.00  0.00    +0.000 OA
ATOM      2  C   UNL     1     -11.773   3.030 -32.817  0.00  0.00    +0.000 A 
ATOM      3  C   UNL     1     -11.752   4.244 -33.491  0.00  0.00    +0.000 A 
ATOM      4  C   UNL     1     -10.874   5.257 -33.179  0.00  0.00    +0.000 A 
ATOM      5  C   UNL     1      -9.787   4.951 -32.370  0.00  0.00    +0.000 A 
ATOM      6  C   UNL     1      -9.747   3.743 -31.684  0.00  0.00    +0.000 A 
ATOM      7  C   UNL     1     -10.764   2.827 -31.893  0.00  0.00    +0.000 A 
ENDROOT
BRANCH   5   8
ATOM      8  C   UNL     1      -8.999   6.032 -31.763  0.00  0.00    +0.000 C 
ATOM      9  C   UNL     1      -9.556   6.796 -30.830  0.00  0.00    +0.000 C 
BRANCH   9  10
ATOM     10  C   UNL     1      -8.765   7.313 -29.730  0.00  0.00    +0.000 A 
ATOM     11  C   UNL     1      -9.118   8.470 -29.092  0.00  0.00    +0.000 A 
ATOM     12  C   UNL     1      -8.385   8.888 -27.991  0.00  0.00    +0.000 A 
ATOM     13  O   UNL     1      -8.603  10.175 -27.534  0.00  0.00    +0.000 OA
ATOM     14  C   UNL     1      -7.493   8.052 -27.367  0.00  0.00    +0.000 A 
ATOM     15  C   UNL     1      -7.077   6.914 -28.041  0.00  0.00    +0.000 A 
ATOM     16  O   UNL     1      -5.997   6.199 -27.541  0.00  0.00    +0.000 OA
ATOM     17  C   UNL     1      -7.702   6.586 -29.239  0.00  0.00    +0.000 A 
ENDBRANCH   9  10
ENDBRANCH   5   8
BRANCH   6  18
ATOM     18  O   UNL     1      -8.547   3.274 -31.138  0.00  0.00    +0.000 OA
BRANCH  18  19
ATOM     19  C   UNL     1      -8.171   1.985 -31.934  0.00  0.00    +0.000 C 
ATOM     20  C   UNL     1      -7.360   1.331 -30.633  0.00  0.00    +0.000 C 
ATOM     21  C   UNL     1      -6.565   2.504 -30.191  0.00  0.00    +0.000 C 
ATOM     22  N   UNL     1      -6.274   3.300 -31.348  0.00  0.00    +0.000 N 
ATOM     23  C   UNL     1      -6.769   2.660 -32.526  0.00  0.00    +0.000 C 
BRANCH  22  24
ATOM     24  C   UNL     1      -5.289   4.306 -31.388  0.00  0.00    +0.000 A 
ATOM     25  C   UNL     1      -4.021   4.076 -30.869  0.00  0.00    +0.000 A 
ATOM     26  C   UNL     1      -3.220   5.089 -30.419  0.00  0.00    +0.000 A 
ATOM     27  N   UNL     1      -3.715   6.326 -30.331  0.00  0.00    +0.000 NA
ATOM     28  C   UNL     1      -4.820   6.599 -31.065  0.00  0.00    +0.000 A 
ATOM     29 CL   UNL     1      -5.194   8.293 -31.330  0.00  0.00    +0.000 Cl
ATOM     30  N   UNL     1      -5.575   5.611 -31.605  0.00  0.00    +0.000 NA
ENDBRANCH  22  24
ENDBRANCH  18  19
ENDBRANCH   6  18
TORSDOF 5
ENDMDL
MODEL 3
REMARK VINA RESULT:      -5.5     35.536     38.717
REMARK  Name = 
REMARK  5 active torsions:
REMARK  status: ('A' for Active; 'I' for Inactive)
REMARK    1  A    between atoms: C_5  and  C_6
REMARK    2  A    between atoms: C_7  and  C_8
REMARK    3  A    between atoms: C_16  and  O_17
REMARK    4  A    between atoms: O_17  and  C_18
REMARK    5  A    between atoms: N_21  and  C_22
REMARK                            x       y       z     vdW  Elec       q    Type
REMARK                         _______ _______ _______ _____ _____    ______ ____
ROOT
ATOM      1  O   UNL     1      -8.190  24.206 -25.471  0.00  0.00    +0.000 OA
ATOM      2  C   UNL     1      -8.602  23.225 -24.909  0.00  0.00    +0.000 A 
ATOM      3  C   UNL     1      -7.702  22.233 -24.544  0.00  0.00    +0.000 A 
ATOM      4  C   UNL     1      -8.058  21.144 -23.781  0.00  0.00    +0.000 A 
ATOM      5  C   UNL     1      -9.412  20.875 -23.622  0.00  0.00    +0.000 A 
ATOM      6  C   UNL     1     -10.359  21.826 -23.986  0.00  0.00    +0.000 A 
ATOM      7  C   UNL     1      -9.927  22.997 -24.584  0.00  0.00    +0.000 A 
ENDROOT
BRANCH   5   8
ATOM      8  C   UNL     1      -9.854  19.928 -22.590  0.00  0.00    +0.000 C 
ATOM      9  C   UNL     1      -9.605  20.196 -21.313  0.00  0.00    +0.000 C 
BRANCH   9  10
ATOM     10  C   UNL     1     -10.545  19.807 -20.280  0.00  0.00    +0.000 A 
ATOM     11  C   UNL     1     -11.111  20.739 -19.456  0.00  0.00    +0.000 A 
ATOM     12  C   UNL     1     -12.069  20.339 -18.536  0.00  0.00    +0.000 A 
ATOM     13  O   UNL     1     -12.428  21.247 -17.557  0.00  0.00    +0.000 OA
ATOM     14  C   UNL     1     -12.653  19.099 -18.606  0.00  0.00    +0.000 A 
ATOM     15  C   UNL     1     -12.042  18.128 -19.385  0.00  0.00    +0.000 A 
ATOM     16  O   UNL     1     -12.470  16.812 -19.268  0.00  0.00    +0.000 OA
ATOM     17  C   UNL     1     -10.967  18.498 -20.184  0.00  0.00    +0.000 A 
ENDBRANCH   9  10
ENDBRANCH   5   8
BRANCH   6  18
ATOM     18  O   UNL     1     -11.702  21.468 -24.143  0.00  0.00    +0.000 OA
BRANCH  18  19
ATOM     19  C   UNL     1     -11.854  20.948 -25.608  0.00  0.00    +0.000 C 
ATOM     20  C   UNL     1     -13.321  21.715 -25.804  0.00  0.00    +0.000 C 
ATOM     21  C   UNL     1     -13.994  21.343 -24.533  0.00  0.00    +0.000 C 
ATOM     22  N   UNL     1     -13.498  20.059 -24.133  0.00  0.00    +0.000 N 
ATOM     23  C   UNL     1     -12.602  19.543 -25.120  0.00  0.00    +0.000 C 
BRANCH  22  24
ATOM     24  C   UNL     1     -14.115  19.240 -23.168  0.00  0.00    +0.000 A 
ATOM     25  C   UNL     1     -13.559  18.016 -22.817  0.00  0.00    +0.000 A 
ATOM     26  C   UNL     1     -14.308  16.989 -22.314  0.00  0.00    +0.000 A 
ATOM     27  N   UNL     1     -15.639  17.099 -22.290  0.00  0.00    +0.000 NA
ATOM     28  C   UNL     1     -16.154  18.349 -22.370  0.00  0.00    +0.000 A 
ATOM     29 CL   UNL     1     -17.824  18.550 -21.873  0.00  0.00    +0.000 Cl
ATOM     30  N   UNL     1     -15.401  19.402 -22.774  0.00  0.00    +0.000 NA
ENDBRANCH  22  24
ENDBRANCH  18  19
ENDBRANCH   6  18
TORSDOF 5
ENDMDL
MODEL 4
REMARK VINA RESULT:      -5.5      2.649      3.316
REMARK  Name = 
REMARK  5 active torsions:
REMARK  status: ('A' for Active; 'I' for Inactive)
REMARK    1  A    between atoms: C_5  and  C_6
REMARK    2  A    between atoms: C_7  and  C_8
REMARK    3  A    between atoms: C_16  and  O_17
REMARK    4  A    between atoms: O_17  and  C_18
REMARK    5  A    between atoms: N_21  and  C_22
REMARK                            x       y       z     vdW  Elec       q    Type
REMARK                         _______ _______ _______ _____ _____    ______ ____
ROOT
ATOM      1  O   UNL     1     -28.807  -4.782  -3.327  0.00  0.00    +0.000 OA
ATOM      2  C   UNL     1     -29.922  -5.228  -3.403  0.00  0.00    +0.000 A 
ATOM      3  C   UNL     1     -30.107  -6.598  -3.271  0.00  0.00    +0.000 A 
ATOM      4  C   UNL     1     -31.352  -7.182  -3.207  0.00  0.00    +0.000 A 
ATOM      5  C   UNL     1     -32.449  -6.417  -3.583  0.00  0.00    +0.000 A 
ATOM      6  C   UNL     1     -32.318  -5.043  -3.746  0.00  0.00    +0.000 A 
ATOM      7  C   UNL     1     -31.064  -4.476  -3.611  0.00  0.00    +0.000 A 
ENDROOT
BRANCH   5   8
ATOM      8  C   UNL     1     -33.806  -6.874  -3.253  0.00  0.00    +0.000 C 
ATOM      9  C   UNL     1     -34.481  -7.596  -4.140  0.00  0.00    +0.000 C 
BRANCH   9  10
ATOM     10  C   UNL     1     -35.388  -8.641  -3.705  0.00  0.00    +0.000 A 
ATOM     11  C   UNL     1     -35.800  -9.620  -4.565  0.00  0.00    +0.000 A 
ATOM     12  C   UNL     1     -36.600 -10.648  -4.091  0.00  0.00    +0.000 A 
ATOM     13  O   UNL     1     -37.203 -11.468  -5.027  0.00  0.00    +0.000 OA
ATOM     14  C   UNL     1     -36.770 -10.858  -2.745  0.00  0.00    +0.000 A 
ATOM     15  C   UNL     1     -36.421  -9.839  -1.872  0.00  0.00    +0.000 A 
ATOM     16  O   UNL     1     -36.818  -9.931  -0.545  0.00  0.00    +0.000 OA
ATOM     17  C   UNL     1     -35.765  -8.724  -2.381  0.00  0.00    +0.000 A 
ENDBRANCH   9  10
ENDBRANCH   5   8
BRANCH   6  18
ATOM     18  O   UNL     1     -33.298  -4.312  -4.426  0.00  0.00    +0.000 OA
BRANCH  18  19
ATOM     19  C   UNL     1     -33.049  -4.548  -5.950  0.00  0.00    +0.000 C 
ATOM     20  C   UNL     1     -32.980  -2.913  -6.266  0.00  0.00    +0.000 C 
ATOM     21  C   UNL     1     -34.163  -2.439  -5.504  0.00  0.00    +0.000 C 
ATOM     22  N   UNL     1     -35.136  -3.492  -5.503  0.00  0.00    +0.000 N 
ATOM     23  C   UNL     1     -34.678  -4.591  -6.293  0.00  0.00    +0.000 C 
BRANCH  22  24
ATOM     24  C   UNL     1     -36.491  -3.314  -5.164  0.00  0.00    +0.000 A 
ATOM     25  C   UNL     1     -37.352  -2.632  -6.016  0.00  0.00    +0.000 A 
ATOM     26  C   UNL     1     -38.476  -1.998  -5.567  0.00  0.00    +0.000 A 
ATOM     27  N   UNL     1     -38.690  -1.895  -4.253  0.00  0.00    +0.000 NA
ATOM     28  C   UNL     1     -38.025  -2.762  -3.453  0.00  0.00    +0.000 A 
ATOM     29 CL   UNL     1     -38.635  -2.957  -1.819  0.00  0.00    +0.000 Cl
ATOM     30  N   UNL     1     -36.966  -3.477  -3.906  0.00  0.00    +0.000 NA
ENDBRANCH  22  24
ENDBRANCH  18  19
ENDBRANCH   6  18
TORSDOF 5
ENDMDL
MODEL 5
REMARK VINA RESULT:      -5.5     35.059     36.779
REMARK  Name = 
REMARK  5 active torsions:
REMARK  status: ('A' for Active; 'I' for Inactive)
REMARK    1  A    between atoms: C_5  and  C_6
REMARK    2  A    between atoms: C_7  and  C_8
REMARK    3  A    between atoms: C_16  and  O_17
REMARK    4  A    between atoms: O_17  and  C_18
REMARK    5  A    between atoms: N_21  and  C_22
REMARK                            x       y       z     vdW  Elec       q    Type
REMARK                         _______ _______ _______ _____ _____    ______ ____
ROOT
ATOM      1  O   UNL     1       0.312   9.834  -8.659  0.00  0.00    +0.000 OA
ATOM      2  C   UNL     1      -0.062   8.717  -8.414  0.00  0.00    +0.000 A 
ATOM      3  C   UNL     1      -1.281   8.292  -8.924  0.00  0.00    +0.000 A 
ATOM      4  C   UNL     1      -1.726   6.994  -8.811  0.00  0.00    +0.000 A 
ATOM      5  C   UNL     1      -1.079   6.159  -7.909  0.00  0.00    +0.000 A 
ATOM      6  C   UNL     1       0.137   6.542  -7.355  0.00  0.00    +0.000 A 
ATOM      7  C   UNL     1       0.637   7.797  -7.654  0.00  0.00    +0.000 A 
ENDROOT
BRANCH   5   8
ATOM      8  C   UNL     1      -1.303   4.709  -7.962  0.00  0.00    +0.000 C 
ATOM      9  C   UNL     1      -1.673   4.151  -9.110  0.00  0.00    +0.000 C 
BRANCH   9  10
ATOM     10  C   UNL     1      -1.222   2.819  -9.463  0.00  0.00    +0.000 A 
ATOM     11  C   UNL     1      -0.864   2.513 -10.746  0.00  0.00    +0.000 A 
ATOM     12  C   UNL     1      -0.358   1.253 -11.028  0.00  0.00    +0.000 A 
ATOM     13  O   UNL     1      -0.251   0.895 -12.359  0.00  0.00    +0.000 OA
ATOM     14  C   UNL     1       0.039   0.402 -10.027  0.00  0.00    +0.000 A 
ATOM     15  C   UNL     1      -0.382   0.668  -8.733  0.00  0.00    +0.000 A 
ATOM     16  O   UNL     1      -0.207  -0.306  -7.760  0.00  0.00    +0.000 OA
ATOM     17  C   UNL     1      -1.044   1.865  -8.483  0.00  0.00    +0.000 A 
ENDBRANCH   9  10
ENDBRANCH   5   8
BRANCH   6  18
ATOM     18  O   UNL     1       0.638   5.891  -6.222  0.00  0.00    +0.000 OA
BRANCH  18  19
ATOM     19  C   UNL     1       2.146   5.600  -6.508  0.00  0.00    +0.000 C 
ATOM     20  C   UNL     1       1.969   3.976  -6.179  0.00  0.00    +0.000 C 
ATOM     21  C   UNL     1       1.180   4.037  -4.923  0.00  0.00    +0.000 C 
ATOM     22  N   UNL     1       1.547   5.238  -4.232  0.00  0.00    +0.000 N 
ATOM     23  C   UNL     1       2.590   5.916  -4.935  0.00  0.00    +0.000 C 
BRANCH  22  24
ATOM     24  C   UNL     1       1.258   5.489  -2.876  0.00  0.00    +0.000 A 
ATOM     25  C   UNL     1       1.337   4.470  -1.935  0.00  0.00    +0.000 A 
ATOM     26  C   UNL     1       0.619   4.491  -0.772  0.00  0.00    +0.000 A 
ATOM     27  N   UNL     1      -0.303   5.440  -0.588  0.00  0.00    +0.000 NA
ATOM     28  C   UNL     1      -0.197   6.554  -1.349  0.00  0.00    +0.000 A 
ATOM     29 CL   UNL     1      -1.080   7.970  -0.806  0.00  0.00    +0.000 Cl
ATOM     30  N   UNL     1       0.588   6.587  -2.454  0.00  0.00    +0.000 NA
ENDBRANCH  22  24
ENDBRANCH  18  19
ENDBRANCH   6  18
TORSDOF 5
ENDMDL
MODEL 6
REMARK VINA RESULT:      -5.4     14.067     16.990
REMARK  Name = 
REMARK  5 active torsions:
REMARK  status: ('A' for Active; 'I' for Inactive)
REMARK    1  A    between atoms: C_5  and  C_6
REMARK    2  A    between atoms: C_7  and  C_8
REMARK    3  A    between atoms: C_16  and  O_17
REMARK    4  A    between atoms: O_17  and  C_18
REMARK    5  A    between atoms: N_21  and  C_22
REMARK                            x       y       z     vdW  Elec       q    Type
REMARK                         _______ _______ _______ _____ _____    ______ ____
ROOT
ATOM      1  O   UNL     1     -28.963   8.402 -12.327  0.00  0.00    +0.000 OA
ATOM      2  C   UNL     1     -28.332   8.134 -11.339  0.00  0.00    +0.000 A 
ATOM      3  C   UNL     1     -27.322   7.184 -11.425  0.00  0.00    +0.000 A 
ATOM      4  C   UNL     1     -26.461   6.913 -10.386  0.00  0.00    +0.000 A 
ATOM      5  C   UNL     1     -26.794   7.386  -9.123  0.00  0.00    +0.000 A 
ATOM      6  C   UNL     1     -27.807   8.325  -8.976  0.00  0.00    +0.000 A 
ATOM      7  C   UNL     1     -28.525   8.708 -10.095  0.00  0.00    +0.000 A 
ENDROOT
BRANCH   5   8
ATOM      8  C   UNL     1     -25.786   7.392  -8.054  0.00  0.00    +0.000 C 
ATOM      9  C   UNL     1     -25.097   8.503  -7.818  0.00  0.00    +0.000 C 
BRANCH   9  10
ATOM     10  C   UNL     1     -24.694   8.849  -6.469  0.00  0.00    +0.000 A 
ATOM     11  C   UNL     1     -24.765  10.139  -6.022  0.00  0.00    +0.000 A 
ATOM     12  C   UNL     1     -24.450  10.418  -4.700  0.00  0.00    +0.000 A 
ATOM     13  O   UNL     1     -24.283  11.745  -4.353  0.00  0.00    +0.000 OA
ATOM     14  C   UNL     1     -24.330   9.417  -3.769  0.00  0.00    +0.000 A 
ATOM     15  C   UNL     1     -24.186   8.113  -4.219  0.00  0.00    +0.000 A 
ATOM     16  O   UNL     1     -23.812   7.131  -3.312  0.00  0.00    +0.000 OA
ATOM     17  C   UNL     1     -24.335   7.861  -5.578  0.00  0.00    +0.000 A 
ENDBRANCH   9  10
ENDBRANCH   5   8
BRANCH   6  18
ATOM     18  O   UNL     1     -28.375   8.568  -7.720  0.00  0.00    +0.000 OA
BRANCH  18  19
ATOM     19  C   UNL     1     -29.581   9.532  -7.957  0.00  0.00    +0.000 C 
ATOM     20  C   UNL     1     -28.833  10.782  -7.146  0.00  0.00    +0.000 C 
ATOM     21  C   UNL     1     -28.341  10.068  -5.940  0.00  0.00    +0.000 C 
ATOM     22  N   UNL     1     -29.255   9.000  -5.658  0.00  0.00    +0.000 N 
ATOM     23  C   UNL     1     -30.356   9.036  -6.569  0.00  0.00    +0.000 C 
BRANCH  22  24
ATOM     24  C   UNL     1     -29.307   8.307  -4.434  0.00  0.00    +0.000 A 
ATOM     25  C   UNL     1     -28.155   7.765  -3.877  0.00  0.00    +0.000 A 
ATOM     26  C   UNL     1     -28.186   6.701  -3.020  0.00  0.00    +0.000 A 
ATOM     27  N   UNL     1     -29.338   6.057  -2.817  0.00  0.00    +0.000 NA
ATOM     28  C   UNL     1     -30.476   6.721  -3.129  0.00  0.00    +0.000 A 
ATOM     29 CL   UNL     1     -31.967   6.100  -2.444  0.00  0.00    +0.000 Cl
ATOM     30  N   UNL     1     -30.458   7.838  -3.897  0.00  0.00    +0.000 NA
ENDBRANCH  22  24
ENDBRANCH  18  19
ENDBRANCH   6  18
TORSDOF 5
ENDMDL
MODEL 7
REMARK VINA RESULT:      -5.4      2.247      3.265
REMARK  Name = 
REMARK  5 active torsions:
REMARK  status: ('A' for Active; 'I' for Inactive)
REMARK    1  A    between atoms: C_5  and  C_6
REMARK    2  A    between atoms: C_7  and  C_8
REMARK    3  A    between atoms: C_16  and  O_17
REMARK    4  A    between atoms: O_17  and  C_18
REMARK    5  A    between atoms: N_21  and  C_22
REMARK                            x       y       z     vdW  Elec       q    Type
REMARK                         _______ _______ _______ _____ _____    ______ ____
ROOT
ATOM      1  O   UNL     1     -28.992  -4.712  -3.381  0.00  0.00    +0.000 OA
ATOM      2  C   UNL     1     -30.092  -5.201  -3.354  0.00  0.00    +0.000 A 
ATOM      3  C   UNL     1     -30.210  -6.584  -3.337  0.00  0.00    +0.000 A 
ATOM      4  C   UNL     1     -31.415  -7.229  -3.169  0.00  0.00    +0.000 A 
ATOM      5  C   UNL     1     -32.578  -6.485  -3.318  0.00  0.00    +0.000 A 
ATOM      6  C   UNL     1     -32.517  -5.097  -3.358  0.00  0.00    +0.000 A 
ATOM      7  C   UNL     1     -31.276  -4.486  -3.333  0.00  0.00    +0.000 A 
ENDROOT
BRANCH   5   8
ATOM      8  C   UNL     1     -33.862  -7.033  -2.860  0.00  0.00    +0.000 C 
ATOM      9  C   UNL     1     -34.641  -7.672  -3.726  0.00  0.00    +0.000 C 
BRANCH   9  10
ATOM     10  C   UNL     1     -35.449  -8.798  -3.301  0.00  0.00    +0.000 A 
ATOM     11  C   UNL     1     -35.805  -8.954  -1.991  0.00  0.00    +0.000 A 
ATOM     12  C   UNL     1     -36.648  -9.996  -1.635  0.00  0.00    +0.000 A 
ATOM     13  O   UNL     1     -36.779 -10.277  -0.288  0.00  0.00    +0.000 OA
ATOM     14  C   UNL     1     -37.341 -10.709  -2.582  0.00  0.00    +0.000 A 
ATOM     15  C   UNL     1     -36.937 -10.610  -3.905  0.00  0.00    +0.000 A 
ATOM     16  O   UNL     1     -37.455 -11.506  -4.830  0.00  0.00    +0.000 OA
ATOM     17  C   UNL     1     -35.963  -9.674  -4.233  0.00  0.00    +0.000 A 
ENDBRANCH   9  10
ENDBRANCH   5   8
BRANCH   6  18
ATOM     18  O   UNL     1     -33.604  -4.351  -3.827  0.00  0.00    +0.000 OA
BRANCH  18  19
ATOM     19  C   UNL     1     -33.425  -4.230  -5.373  0.00  0.00    +0.000 C 
ATOM     20  C   UNL     1     -33.874  -2.624  -5.372  0.00  0.00    +0.000 C 
ATOM     21  C   UNL     1     -35.077  -2.679  -4.503  0.00  0.00    +0.000 C 
ATOM     22  N   UNL     1     -35.687  -3.965  -4.677  0.00  0.00    +0.000 N 
ATOM     23  C   UNL     1     -34.989  -4.713  -5.675  0.00  0.00    +0.000 C 
BRANCH  22  24
ATOM     24  C   UNL     1     -37.000  -4.277  -4.275  0.00  0.00    +0.000 A 
ATOM     25  C   UNL     1     -37.793  -3.325  -3.645  0.00  0.00    +0.000 A 
ATOM     26  C   UNL     1     -38.817  -3.665  -2.807  0.00  0.00    +0.000 A 
ATOM     27  N   UNL     1     -38.980  -4.943  -2.455  0.00  0.00    +0.000 NA
ATOM     28  C   UNL     1     -38.405  -5.876  -3.249  0.00  0.00    +0.000 A 
ATOM     29 CL   UNL     1     -38.989  -7.522  -3.084  0.00  0.00    +0.000 Cl
ATOM     30  N   UNL     1     -37.456  -5.547  -4.159  0.00  0.00    +0.000 NA
ENDBRANCH  22  24
ENDBRANCH  18  19
ENDBRANCH   6  18
TORSDOF 5
ENDMDL
MODEL 8
REMARK VINA RESULT:      -5.3     37.651     40.373
REMARK  Name = 
REMARK  5 active torsions:
REMARK  status: ('A' for Active; 'I' for Inactive)
REMARK    1  A    between atoms: C_5  and  C_6
REMARK    2  A    between atoms: C_7  and  C_8
REMARK    3  A    between atoms: C_16  and  O_17
REMARK    4  A    between atoms: O_17  and  C_18
REMARK    5  A    between atoms: N_21  and  C_22
REMARK                            x       y       z     vdW  Elec       q    Type
REMARK                         _______ _______ _______ _____ _____    ______ ____
ROOT
ATOM      1  O   UNL     1      -2.171  19.908   4.272  0.00  0.00    +0.000 OA
ATOM      2  C   UNL     1      -1.761  18.893   3.772  0.00  0.00    +0.000 A 
ATOM      3  C   UNL     1      -1.104  18.965   2.551  0.00  0.00    +0.000 A 
ATOM      4  C   UNL     1      -0.483  17.882   1.971  0.00  0.00    +0.000 A 
ATOM      5  C   UNL     1      -0.774  16.619   2.472  0.00  0.00    +0.000 A 
ATOM      6  C   UNL     1      -1.445  16.488   3.682  0.00  0.00    +0.000 A 
ATOM      7  C   UNL     1      -1.887  17.631   4.324  0.00  0.00    +0.000 A 
ENDROOT
BRANCH   5   8
ATOM      8  C   UNL     1       0.069  15.474   2.106  0.00  0.00    +0.000 C 
ATOM      9  C   UNL     1      -0.062  14.929   0.902  0.00  0.00    +0.000 C 
BRANCH   9  10
ATOM     10  C   UNL     1       1.089  14.383   0.209  0.00  0.00    +0.000 A 
ATOM     11  C   UNL     1       1.510  13.104   0.443  0.00  0.00    +0.000 A 
ATOM     12  C   UNL     1       2.562  12.589  -0.299  0.00  0.00    +0.000 A 
ATOM     13  O   UNL     1       3.124  11.402   0.134  0.00  0.00    +0.000 OA
ATOM     14  C   UNL     1       3.015  13.221  -1.430  0.00  0.00    +0.000 A 
ATOM     15  C   UNL     1       2.649  14.543  -1.635  0.00  0.00    +0.000 A 
ATOM     16  O   UNL     1       3.295  15.268  -2.627  0.00  0.00    +0.000 OA
ATOM     17  C   UNL     1       1.713  15.113  -0.780  0.00  0.00    +0.000 A 
ENDBRANCH   9  10
ENDBRANCH   5   8
BRANCH   6  18
ATOM     18  O   UNL     1      -2.031  15.269   4.041  0.00  0.00    +0.000 OA
BRANCH  18  19
ATOM     19  C   UNL     1      -3.523  15.341   3.586  0.00  0.00    +0.000 C 
ATOM     20  C   UNL     1      -4.030  14.380   4.850  0.00  0.00    +0.000 C 
ATOM     21  C   UNL     1      -3.016  13.298   4.792  0.00  0.00    +0.000 C 
ATOM     22  N   UNL     1      -2.609  13.148   3.426  0.00  0.00    +0.000 N 
ATOM     23  C   UNL     1      -3.367  14.020   2.584  0.00  0.00    +0.000 C 
BRANCH  22  24
ATOM     24  C   UNL     1      -1.911  12.031   2.928  0.00  0.00    +0.000 A 
ATOM     25  C   UNL     1      -1.901  11.752   1.566  0.00  0.00    +0.000 A 
ATOM     26  C   UNL     1      -1.705  10.489   1.080  0.00  0.00    +0.000 A 
ATOM     27  N   UNL     1      -1.669   9.458   1.928  0.00  0.00    +0.000 NA
ATOM     28  C   UNL     1      -1.412   9.740   3.227  0.00  0.00    +0.000 A 
ATOM     29 CL   UNL     1      -0.900   8.403   4.240  0.00  0.00    +0.000 Cl
ATOM     30  N   UNL     1      -1.504  11.004   3.710  0.00  0.00    +0.000 NA
ENDBRANCH  22  24
ENDBRANCH  18  19
ENDBRANCH   6  18
TORSDOF 5
ENDMDL
MODEL 9
REMARK VINA RESULT:      -5.2     37.750     40.292
REMARK  Name = 
REMARK  5 active torsions:
REMARK  status: ('A' for Active; 'I' for Inactive)
REMARK    1  A    between atoms: C_5  and  C_6
REMARK    2  A    between atoms: C_7  and  C_8
REMARK    3  A    between atoms: C_16  and  O_17
REMARK    4  A    between atoms: O_17  and  C_18
REMARK    5  A    between atoms: N_21  and  C_22
REMARK                            x       y       z     vdW  Elec       q    Type
REMARK                         _______ _______ _______ _____ _____    ______ ____
ROOT
ATOM      1  O   UNL     1       2.933  15.137  -1.925  0.00  0.00    +0.000 OA
ATOM      2  C   UNL     1       2.182  15.307  -1.001  0.00  0.00    +0.000 A 
ATOM      3  C   UNL     1       2.247  16.501  -0.295  0.00  0.00    +0.000 A 
ATOM      4  C   UNL     1       1.341  16.841   0.685  0.00  0.00    +0.000 A 
ATOM      5  C   UNL     1       0.519  15.840   1.186  0.00  0.00    +0.000 A 
ATOM      6  C   UNL     1       0.427  14.619   0.529  0.00  0.00    +0.000 A 
ATOM      7  C   UNL     1       1.232  14.397  -0.575  0.00  0.00    +0.000 A 
ENDROOT
BRANCH   5   8
ATOM      8  C   UNL     1      -0.654  16.194   1.997  0.00  0.00    +0.000 C 
ATOM      9  C   UNL     1      -0.655  17.339   2.671  0.00  0.00    +0.000 C 
BRANCH   9  10
ATOM     10  C   UNL     1      -1.884  18.089   2.849  0.00  0.00    +0.000 A 
ATOM     11  C   UNL     1      -3.065  17.453   3.112  0.00  0.00    +0.000 A 
ATOM     12  C   UNL     1      -4.202  18.208   3.360  0.00  0.00    +0.000 A 
ATOM     13  O   UNL     1      -5.415  17.545   3.366  0.00  0.00    +0.000 OA
ATOM     14  C   UNL     1      -4.124  19.555   3.608  0.00  0.00    +0.000 A 
ATOM     15  C   UNL     1      -2.953  20.219   3.275  0.00  0.00    +0.000 A 
ATOM     16  O   UNL     1      -2.948  21.607   3.281  0.00  0.00    +0.000 OA
ATOM     17  C   UNL     1      -1.859  19.467   2.862  0.00  0.00    +0.000 A 
ENDBRANCH   9  10
ENDBRANCH   5   8
BRANCH   6  18
ATOM     18  O   UNL     1      -0.121  13.504   1.173  0.00  0.00    +0.000 OA
BRANCH  18  19
ATOM     19  C   UNL     1       1.078  12.700   1.768  0.00  0.00    +0.000 C 
ATOM     20  C   UNL     1       0.501  11.256   1.167  0.00  0.00    +0.000 C 
ATOM     21  C   UNL     1      -0.929  11.354   1.552  0.00  0.00    +0.000 C 
ATOM     22  N   UNL     1      -1.009  12.123   2.760  0.00  0.00    +0.000 N 
ATOM     23  C   UNL     1       0.302  12.458   3.221  0.00  0.00    +0.000 C 
BRANCH  22  24
ATOM     24  C   UNL     1      -2.141  12.166   3.596  0.00  0.00    +0.000 A 
ATOM     25  C   UNL     1      -2.875  13.338   3.735  0.00  0.00    +0.000 A 
ATOM     26  C   UNL     1      -3.623  13.606   4.847  0.00  0.00    +0.000 A 
ATOM     27  N   UNL     1      -3.539  12.794   5.904  0.00  0.00    +0.000 NA
ATOM     28  C   UNL     1      -3.057  11.548   5.685  0.00  0.00    +0.000 A 
ATOM     29 CL   UNL     1      -3.377  10.347   6.923  0.00  0.00    +0.000 Cl
ATOM     30  N   UNL     1      -2.396  11.233   4.544  0.00  0.00    +0.000 NA
ENDBRANCH  22  24
ENDBRANCH  18  19
ENDBRANCH   6  18
TORSDOF 5
ENDMDL
MODEL 10
REMARK VINA RESULT:      -5.2      3.812      5.803
REMARK  Name = 
REMARK  5 active torsions:
REMARK  status: ('A' for Active; 'I' for Inactive)
REMARK    1  A    between atoms: C_5  and  C_6
REMARK    2  A    between atoms: C_7  and  C_8
REMARK    3  A    between atoms: C_16  and  O_17
REMARK    4  A    between atoms: O_17  and  C_18
REMARK    5  A    between atoms: N_21  and  C_22
REMARK                            x       y       z     vdW  Elec       q    Type
REMARK                         _______ _______ _______ _____ _____    ______ ____
ROOT
ATOM      1  O   UNL     1     -32.374  -2.327  -5.096  0.00  0.00    +0.000 OA
ATOM      2  C   UNL     1     -33.108  -3.102  -5.651  0.00  0.00    +0.000 A 
ATOM      3  C   UNL     1     -32.760  -3.573  -6.910  0.00  0.00    +0.000 A 
ATOM      4  C   UNL     1     -33.464  -4.562  -7.559  0.00  0.00    +0.000 A 
ATOM      5  C   UNL     1     -34.725  -4.888  -7.076  0.00  0.00    +0.000 A 
ATOM      6  C   UNL     1     -35.132  -4.431  -5.828  0.00  0.00    +0.000 A 
ATOM      7  C   UNL     1     -34.295  -3.582  -5.127  0.00  0.00    +0.000 A 
ENDROOT
BRANCH   5   8
ATOM      8  C   UNL     1     -35.386  -6.120  -7.529  0.00  0.00    +0.000 C 
ATOM      9  C   UNL     1     -35.595  -6.304  -8.828  0.00  0.00    +0.000 C 
BRANCH   9  10
ATOM     10  C   UNL     1     -35.525  -7.632  -9.406  0.00  0.00    +0.000 A 
ATOM     11  C   UNL     1     -35.831  -8.739  -8.666  0.00  0.00    +0.000 A 
ATOM     12  C   UNL     1     -35.833  -9.984  -9.276  0.00  0.00    +0.000 A 
ATOM     13  O   UNL     1     -35.892 -11.095  -8.454  0.00  0.00    +0.000 OA
ATOM     14  C   UNL     1     -35.799 -10.110 -10.642  0.00  0.00    +0.000 A 
ATOM     15  C   UNL     1     -35.418  -9.009 -11.394  0.00  0.00    +0.000 A 
ATOM     16  O   UNL     1     -35.134  -9.187 -12.741  0.00  0.00    +0.000 OA
ATOM     17  C   UNL     1     -35.251  -7.790 -10.748  0.00  0.00    +0.000 A 
ENDBRANCH   9  10
ENDBRANCH   5   8
BRANCH   6  18
ATOM     18  O   UNL     1     -36.483  -4.466  -5.466  0.00  0.00    +0.000 OA
BRANCH  18  19
ATOM     19  C   UNL     1     -36.746  -3.186  -4.609  0.00  0.00    +0.000 C 
ATOM     20  C   UNL     1     -38.280  -3.689  -4.198  0.00  0.00    +0.000 C 
ATOM     21  C   UNL     1     -38.786  -4.131  -5.522  0.00  0.00    +0.000 C 
ATOM     22  N   UNL     1     -38.153  -3.326  -6.525  0.00  0.00    +0.000 N 
ATOM     23  C   UNL     1     -37.327  -2.332  -5.915  0.00  0.00    +0.000 C 
BRANCH  22  24
ATOM     24  C   UNL     1     -38.601  -3.227  -7.857  0.00  0.00    +0.000 A 
ATOM     25  C   UNL     1     -37.706  -2.965  -8.887  0.00  0.00    +0.000 A 
ATOM     26  C   UNL     1     -38.091  -2.372 -10.057  0.00  0.00    +0.000 A 
ATOM     27  N   UNL     1     -39.331  -1.889 -10.171  0.00  0.00    +0.000 NA
ATOM     28  C   UNL     1     -40.258  -2.368  -9.307  0.00  0.00    +0.000 A 
ATOM     29 CL   UNL     1     -41.941  -2.117  -9.733  0.00  0.00    +0.000 Cl
ATOM     30  N   UNL     1     -39.901  -3.046  -8.188  0.00  0.00    +0.000 NA
ENDBRANCH  22  24
ENDBRANCH  18  19
ENDBRANCH   6  18
TORSDOF 5
ENDMDL
