MODEL 1
REMARK VINA RESULT:      -7.5      0.000      0.000
REMARK  Name = 
REMARK  6 active torsions:
REMARK  status: ('A' for Active; 'I' for Inactive)
REMARK    1  A    between atoms: C_2  and  O_4
REMARK    2  A    between atoms: O_4  and  C_5
REMARK    3  A    between atoms: C_9  and  O_10
REMARK    4  A    between atoms: O_10  and  C_11
REMARK    5  A    between atoms: C_17  and  C_18
REMARK    6  A    between atoms: C_19  and  C_20
REMARK                            x       y       z     vdW  Elec       q    Type
REMARK                         _______ _______ _______ _____ _____    ______ ____
ROOT
ATOM      1  C   UNL     1     -34.640  -4.013  -4.174  0.00  0.00    +0.000 A 
ATOM      2  C   UNL     1     -35.107  -5.240  -3.711  0.00  0.00    +0.000 A 
ATOM      3  C   UNL     1     -34.248  -6.205  -3.192  0.00  0.00    +0.000 A 
ATOM      4  O   UNL     1     -34.392  -7.554  -3.407  0.00  0.00    +0.000 OA
ATOM      5  C   UNL     1     -33.131  -5.688  -2.544  0.00  0.00    +0.000 A 
ATOM      6  C   UNL     1     -32.621  -4.441  -2.885  0.00  0.00    +0.000 A 
ATOM      7  C   UNL     1     -33.339  -3.667  -3.805  0.00  0.00    +0.000 A 
ENDROOT
BRANCH   7   8
ATOM      8  C   UNL     1     -32.644  -2.884  -4.811  0.00  0.00    +0.000 C 
ATOM      9  C   UNL     1     -31.828  -3.106  -5.732  0.00  0.00    +0.000 C 
BRANCH   9  10
ATOM     10  C   UNL     1     -30.529  -3.793  -5.822  0.00  0.00    +0.000 A 
ATOM     11  C   UNL     1     -30.384  -5.122  -5.418  0.00  0.00    +0.000 A 
ATOM     12  C   UNL     1     -29.522  -5.488  -4.392  0.00  0.00    +0.000 A 
ATOM     13  O   UNL     1     -29.753  -6.554  -3.536  0.00  0.00    +0.000 OA
ATOM     14  C   UNL     1     -28.502  -4.616  -4.030  0.00  0.00    +0.000 A 
ATOM     15  C   UNL     1     -28.365  -3.457  -4.787  0.00  0.00    +0.000 A 
ATOM     16  O   UNL     1     -27.243  -2.695  -4.521  0.00  0.00    +0.000 OA
ATOM     17  C   UNL     1     -29.321  -3.102  -5.735  0.00  0.00    +0.000 A 
ENDBRANCH   9  10
ENDBRANCH   7   8
BRANCH   1  18
ATOM     18  O   UNL     1     -35.505  -2.909  -4.316  0.00  0.00    +0.000 OA
BRANCH  18  23
ATOM     19  C   UNL     1     -37.561  -2.574  -8.572  0.00  0.00    +0.000 C 
ATOM     20  C   UNL     1     -37.639  -1.592  -7.296  0.00  0.00    +0.000 C 
ATOM     21  C   UNL     1     -38.636  -2.451  -6.335  0.00  0.00    +0.000 C 
ATOM     22  C   UNL     1     -37.645  -2.217  -5.025  0.00  0.00    +0.000 C 
ATOM     23  C   UNL     1     -36.639  -3.501  -5.166  0.00  0.00    +0.000 C 
ATOM     24  C   UNL     1     -36.032  -2.918  -6.585  0.00  0.00    +0.000 C 
ATOM     25  C   UNL     1     -36.965  -3.838  -7.578  0.00  0.00    +0.000 C 
ATOM     26  N   UNL     1     -38.160  -3.872  -6.647  0.00  0.00    +0.000 NA
ATOM     27  C   UNL     1     -39.076  -4.829  -6.821  0.00  0.00    +0.000 C 
BRANCH  19  28
ATOM     28  O   UNL     1     -39.027  -3.014  -8.512  0.00  0.00    +0.000 OA
BRANCH  28  30
ATOM     29  C   UNL     1     -40.916  -2.318  -9.447  0.00  0.00    +0.000 C 
ATOM     30  C   UNL     1     -39.841  -2.629  -9.566  0.00  0.00    +0.000 C 
ATOM     31  O   UNL     1     -39.188  -1.976 -10.440  0.00  0.00    +0.000 OA
ENDBRANCH  28  30
ENDBRANCH  19  28
ENDBRANCH  18  23
ENDBRANCH   1  18
TORSDOF 6
ENDMDL
MODEL 2
REMARK VINA RESULT:      -7.3      1.789      2.511
REMARK  Name = 
REMARK  6 active torsions:
REMARK  status: ('A' for Active; 'I' for Inactive)
REMARK    1  A    between atoms: C_2  and  O_4
REMARK    2  A    between atoms: O_4  and  C_5
REMARK    3  A    between atoms: C_9  and  O_10
REMARK    4  A    between atoms: O_10  and  C_11
REMARK    5  A    between atoms: C_17  and  C_18
REMARK    6  A    between atoms: C_19  and  C_20
REMARK                            x       y       z     vdW  Elec       q    Type
REMARK                         _______ _______ _______ _____ _____    ______ ____
ROOT
ATOM      1  C   UNL     1     -34.480  -5.278  -4.002  0.00  0.00    +0.000 A 
ATOM      2  C   UNL     1     -35.146  -6.075  -4.929  0.00  0.00    +0.000 A 
ATOM      3  C   UNL     1     -34.972  -7.455  -4.972  0.00  0.00    +0.000 A 
ATOM      4  O   UNL     1     -34.919  -8.185  -6.135  0.00  0.00    +0.000 OA
ATOM      5  C   UNL     1     -34.711  -8.039  -3.737  0.00  0.00    +0.000 A 
ATOM      6  C   UNL     1     -34.107  -7.312  -2.718  0.00  0.00    +0.000 A 
ATOM      7  C   UNL     1     -33.890  -5.944  -2.926  0.00  0.00    +0.000 A 
ENDROOT
BRANCH   7   8
ATOM      8  C   UNL     1     -32.669  -5.312  -2.457  0.00  0.00    +0.000 C 
ATOM      9  C   UNL     1     -31.677  -4.755  -2.975  0.00  0.00    +0.000 C 
BRANCH   9  10
ATOM     10  C   UNL     1     -30.710  -5.125  -4.021  0.00  0.00    +0.000 A 
ATOM     11  C   UNL     1     -29.334  -5.003  -3.811  0.00  0.00    +0.000 A 
ATOM     12  C   UNL     1     -28.543  -4.173  -4.595  0.00  0.00    +0.000 A 
ATOM     13  O   UNL     1     -27.415  -3.516  -4.124  0.00  0.00    +0.000 OA
ATOM     14  C   UNL     1     -29.017  -3.771  -5.837  0.00  0.00    +0.000 A 
ATOM     15  C   UNL     1     -30.234  -4.302  -6.249  0.00  0.00    +0.000 A 
ATOM     16  O   UNL     1     -30.599  -4.027  -7.554  0.00  0.00    +0.000 OA
ATOM     17  C   UNL     1     -31.023  -5.048  -5.378  0.00  0.00    +0.000 A 
ENDBRANCH   9  10
ENDBRANCH   7   8
BRANCH   1  18
ATOM     18  O   UNL     1     -34.939  -3.983  -3.688  0.00  0.00    +0.000 OA
BRANCH  18  23
ATOM     19  C   UNL     1     -36.882  -0.918  -6.734  0.00  0.00    +0.000 C 
ATOM     20  C   UNL     1     -36.874  -0.923  -5.123  0.00  0.00    +0.000 C 
ATOM     21  C   UNL     1     -37.972  -2.093  -4.835  0.00  0.00    +0.000 C 
ATOM     22  C   UNL     1     -36.981  -2.805  -3.711  0.00  0.00    +0.000 C 
ATOM     23  C   UNL     1     -36.117  -3.820  -4.661  0.00  0.00    +0.000 C 
ATOM     24  C   UNL     1     -35.429  -2.550  -5.458  0.00  0.00    +0.000 C 
ATOM     25  C   UNL     1     -36.440  -2.575  -6.755  0.00  0.00    +0.000 C 
ATOM     26  N   UNL     1     -37.646  -3.061  -5.976  0.00  0.00    +0.000 NA
ATOM     27  C   UNL     1     -38.656  -3.618  -6.649  0.00  0.00    +0.000 C 
BRANCH  19  28
ATOM     28  O   UNL     1     -38.387  -1.162  -6.878  0.00  0.00    +0.000 OA
BRANCH  28  30
ATOM     29  C   UNL     1     -40.122   0.027  -7.587  0.00  0.00    +0.000 C 
ATOM     30  C   UNL     1     -39.074  -0.344  -7.761  0.00  0.00    +0.000 C 
ATOM     31  O   UNL     1     -38.295   0.493  -8.317  0.00  0.00    +0.000 OA
ENDBRANCH  28  30
ENDBRANCH  19  28
ENDBRANCH  18  23
ENDBRANCH   1  18
TORSDOF 6
ENDMDL
MODEL 3
REMARK VINA RESULT:      -7.2     13.147     17.172
REMARK  Name = 
REMARK  6 active torsions:
REMARK  status: ('A' for Active; 'I' for Inactive)
REMARK    1  A    between atoms: C_2  and  O_4
REMARK    2  A    between atoms: O_4  and  C_5
REMARK    3  A    between atoms: C_9  and  O_10
REMARK    4  A    between atoms: O_10  and  C_11
REMARK    5  A    between atoms: C_17  and  C_18
REMARK    6  A    between atoms: C_19  and  C_20
REMARK                            x       y       z     vdW  Elec       q    Type
REMARK                         _______ _______ _______ _____ _____    ______ ____
ROOT
ATOM      1  C   UNL     1     -26.157   9.100  -8.081  0.00  0.00    +0.000 A 
ATOM      2  C   UNL     1     -26.636  10.391  -7.874  0.00  0.00    +0.000 A 
ATOM      3  C   UNL     1     -27.882  10.796  -8.344  0.00  0.00    +0.000 A 
ATOM      4  O   UNL     1     -28.137  12.042  -8.862  0.00  0.00    +0.000 OA
ATOM      5  C   UNL     1     -28.837   9.785  -8.380  0.00  0.00    +0.000 A 
ATOM      6  C   UNL     1     -28.462   8.454  -8.518  0.00  0.00    +0.000 A 
ATOM      7  C   UNL     1     -27.095   8.150  -8.487  0.00  0.00    +0.000 A 
ENDROOT
BRANCH   7   8
ATOM      8  C   UNL     1     -26.545   7.139  -9.372  0.00  0.00    +0.000 C 
ATOM      9  C   UNL     1     -26.754   6.742 -10.539  0.00  0.00    +0.000 C 
BRANCH   9  10
ATOM     10  C   UNL     1     -27.942   6.297 -11.285  0.00  0.00    +0.000 A 
ATOM     11  C   UNL     1     -28.595   7.148 -12.180  0.00  0.00    +0.000 A 
ATOM     12  C   UNL     1     -29.922   7.520 -12.002  0.00  0.00    +0.000 A 
ATOM     13  O   UNL     1     -30.436   8.749 -12.392  0.00  0.00    +0.000 OA
ATOM     14  C   UNL     1     -30.732   6.748 -11.179  0.00  0.00    +0.000 A 
ATOM     15  C   UNL     1     -30.170   5.592 -10.648  0.00  0.00    +0.000 A 
ATOM     16  O   UNL     1     -31.042   4.752  -9.980  0.00  0.00    +0.000 OA
ATOM     17  C   UNL     1     -28.810   5.328 -10.783  0.00  0.00    +0.000 A 
ENDBRANCH   9  10
ENDBRANCH   7   8
BRANCH   1  18
ATOM     18  O   UNL     1     -25.117   8.571  -7.289  0.00  0.00    +0.000 OA
BRANCH  18  23
ATOM     19  C   UNL     1     -22.883   9.488  -3.212  0.00  0.00    +0.000 C 
ATOM     20  C   UNL     1     -23.797   8.232  -3.641  0.00  0.00    +0.000 C 
ATOM     21  C   UNL     1     -25.276   8.910  -3.554  0.00  0.00    +0.000 C 
ATOM     22  C   UNL     1     -25.702   8.271  -5.024  0.00  0.00    +0.000 C 
ATOM     23  C   UNL     1     -25.194   9.455  -6.034  0.00  0.00    +0.000 C 
ATOM     24  C   UNL     1     -23.621   9.191  -5.614  0.00  0.00    +0.000 C 
ATOM     25  C   UNL     1     -23.516  10.408  -4.514  0.00  0.00    +0.000 C 
ATOM     26  N   UNL     1     -24.963  10.316  -4.072  0.00  0.00    +0.000 NA
ATOM     27  C   UNL     1     -25.505  11.364  -3.446  0.00  0.00    +0.000 C 
BRANCH  19  28
ATOM     28  O   UNL     1     -23.856  10.028  -2.159  0.00  0.00    +0.000 OA
BRANCH  28  30
ATOM     29  C   UNL     1     -23.641   9.269  -0.085  0.00  0.00    +0.000 C 
ATOM     30  C   UNL     1     -23.407  10.062  -0.849  0.00  0.00    +0.000 C 
ATOM     31  O   UNL     1     -22.234  10.548  -0.773  0.00  0.00    +0.000 OA
ENDBRANCH  28  30
ENDBRANCH  19  28
ENDBRANCH  18  23
ENDBRANCH   1  18
TORSDOF 6
ENDMDL
MODEL 4
REMARK VINA RESULT:      -7.2      3.241      4.222
REMARK  Name = 
REMARK  6 active torsions:
REMARK  status: ('A' for Active; 'I' for Inactive)
REMARK    1  A    between atoms: C_2  and  O_4
REMARK    2  A    between atoms: O_4  and  C_5
REMARK    3  A    between atoms: C_9  and  O_10
REMARK    4  A    between atoms: O_10  and  C_11
REMARK    5  A    between atoms: C_17  and  C_18
REMARK    6  A    between atoms: C_19  and  C_20
REMARK                            x       y       z     vdW  Elec       q    Type
REMARK                         _______ _______ _______ _____ _____    ______ ____
ROOT
ATOM      1  C   UNL     1     -32.876  -6.096  -3.223  0.00  0.00    +0.000 A 
ATOM      2  C   UNL     1     -32.075  -7.222  -3.402  0.00  0.00    +0.000 A 
ATOM      3  C   UNL     1     -30.703  -7.193  -3.166  0.00  0.00    +0.000 A 
ATOM      4  O   UNL     1     -29.780  -7.856  -3.935  0.00  0.00    +0.000 OA
ATOM      5  C   UNL     1     -30.314  -6.315  -2.159  0.00  0.00    +0.000 A 
ATOM      6  C   UNL     1     -31.076  -5.194  -1.855  0.00  0.00    +0.000 A 
ATOM      7  C   UNL     1     -32.311  -5.045  -2.499  0.00  0.00    +0.000 A 
ENDROOT
BRANCH   7   8
ATOM      8  C   UNL     1     -32.758  -3.736  -2.941  0.00  0.00    +0.000 C 
ATOM      9  C   UNL     1     -32.961  -3.166  -4.036  0.00  0.00    +0.000 C 
BRANCH   9  10
ATOM     10  C   UNL     1     -32.170  -2.961  -5.259  0.00  0.00    +0.000 A 
ATOM     11  C   UNL     1     -32.755  -3.054  -6.524  0.00  0.00    +0.000 A 
ATOM     12  C   UNL     1     -32.338  -3.995  -7.458  0.00  0.00    +0.000 A 
ATOM     13  O   UNL     1     -33.182  -4.578  -8.392  0.00  0.00    +0.000 OA
ATOM     14  C   UNL     1     -31.086  -4.578  -7.311  0.00  0.00    +0.000 A 
ATOM     15  C   UNL     1     -30.292  -4.110  -6.269  0.00  0.00    +0.000 A 
ATOM     16  O   UNL     1     -28.990  -4.577  -6.250  0.00  0.00    +0.000 OA
ATOM     17  C   UNL     1     -30.804  -3.240  -5.311  0.00  0.00    +0.000 A 
ENDBRANCH   9  10
ENDBRANCH   7   8
BRANCH   1  18
ATOM     18  O   UNL     1     -34.271  -6.211  -3.067  0.00  0.00    +0.000 OA
BRANCH  18  23
ATOM     19  C   UNL     1     -36.543  -6.225  -7.225  0.00  0.00    +0.000 C 
ATOM     20  C   UNL     1     -37.121  -6.194  -5.721  0.00  0.00    +0.000 C 
ATOM     21  C   UNL     1     -36.879  -7.746  -5.289  0.00  0.00    +0.000 C 
ATOM     22  C   UNL     1     -36.226  -7.283  -3.835  0.00  0.00    +0.000 C 
ATOM     23  C   UNL     1     -34.648  -7.127  -4.242  0.00  0.00    +0.000 C 
ATOM     24  C   UNL     1     -34.994  -5.873  -5.256  0.00  0.00    +0.000 C 
ATOM     25  C   UNL     1     -35.020  -6.756  -6.642  0.00  0.00    +0.000 C 
ATOM     26  N   UNL     1     -35.544  -8.019  -5.987  0.00  0.00    +0.000 NA
ATOM     27  C   UNL     1     -35.382  -9.181  -6.625  0.00  0.00    +0.000 C 
BRANCH  19  28
ATOM     28  O   UNL     1     -37.072  -7.623  -7.560  0.00  0.00    +0.000 OA
BRANCH  28  30
ATOM     29  C   UNL     1     -37.453  -7.282  -9.720  0.00  0.00    +0.000 C 
ATOM     30  C   UNL     1     -37.766  -7.763  -8.752  0.00  0.00    +0.000 C 
ATOM     31  O   UNL     1     -38.255  -8.931  -8.868  0.00  0.00    +0.000 OA
ENDBRANCH  28  30
ENDBRANCH  19  28
ENDBRANCH  18  23
ENDBRANCH   1  18
TORSDOF 6
ENDMDL
MODEL 5
REMARK VINA RESULT:      -7.1     18.538     20.622
REMARK  Name = 
REMARK  6 active torsions:
REMARK  status: ('A' for Active; 'I' for Inactive)
REMARK    1  A    between atoms: C_2  and  O_4
REMARK    2  A    between atoms: O_4  and  C_5
REMARK    3  A    between atoms: C_9  and  O_10
REMARK    4  A    between atoms: O_10  and  C_11
REMARK    5  A    between atoms: C_17  and  C_18
REMARK    6  A    between atoms: C_19  and  C_20
REMARK                            x       y       z     vdW  Elec       q    Type
REMARK                         _______ _______ _______ _____ _____    ______ ____
ROOT
ATOM      1  C   UNL     1     -19.608  -6.587   8.306  0.00  0.00    +0.000 A 
ATOM      2  C   UNL     1     -20.780  -6.969   8.953  0.00  0.00    +0.000 A 
ATOM      3  C   UNL     1     -21.368  -8.212   8.735  0.00  0.00    +0.000 A 
ATOM      4  O   UNL     1     -22.725  -8.416   8.667  0.00  0.00    +0.000 OA
ATOM      5  C   UNL     1     -20.466  -9.230   8.446  0.00  0.00    +0.000 A 
ATOM      6  C   UNL     1     -19.238  -8.950   7.858  0.00  0.00    +0.000 A 
ATOM      7  C   UNL     1     -18.883  -7.606   7.687  0.00  0.00    +0.000 A 
ENDROOT
BRANCH   7   8
ATOM      8  C   UNL     1     -18.194  -7.174   6.484  0.00  0.00    +0.000 C 
ATOM      9  C   UNL     1     -18.389  -7.241   5.251  0.00  0.00    +0.000 C 
BRANCH   9  10
ATOM     10  C   UNL     1     -18.690  -8.330   4.308  0.00  0.00    +0.000 A 
ATOM     11  C   UNL     1     -20.008  -8.676   3.998  0.00  0.00    +0.000 A 
ATOM     12  C   UNL     1     -20.517  -9.941   4.265  0.00  0.00    +0.000 A 
ATOM     13  O   UNL     1     -21.843 -10.183   4.592  0.00  0.00    +0.000 OA
ATOM     14  C   UNL     1     -19.631 -10.993   4.464  0.00  0.00    +0.000 A 
ATOM     15  C   UNL     1     -18.279 -10.718   4.297  0.00  0.00    +0.000 A 
ATOM     16  O   UNL     1     -17.435 -11.812   4.326  0.00  0.00    +0.000 OA
ATOM     17  C   UNL     1     -17.828  -9.411   4.128  0.00  0.00    +0.000 A 
ENDBRANCH   9  10
ENDBRANCH   7   8
BRANCH   1  18
ATOM     18  O   UNL     1     -18.808  -5.539   8.804  0.00  0.00    +0.000 OA
BRANCH  18  23
ATOM     19  C   UNL     1     -18.236  -0.980   7.646  0.00  0.00    +0.000 C 
ATOM     20  C   UNL     1     -18.216  -1.700   9.087  0.00  0.00    +0.000 C 
ATOM     21  C   UNL     1     -19.811  -1.956   9.302  0.00  0.00    +0.000 C 
ATOM     22  C   UNL     1     -19.539  -3.521   9.781  0.00  0.00    +0.000 C 
ATOM     23  C   UNL     1     -19.586  -4.297   8.340  0.00  0.00    +0.000 C 
ATOM     24  C   UNL     1     -18.234  -3.504   7.826  0.00  0.00    +0.000 C 
ATOM     25  C   UNL     1     -19.016  -2.346   6.961  0.00  0.00    +0.000 C 
ATOM     26  N   UNL     1     -20.229  -2.296   7.869  0.00  0.00    +0.000 NA
ATOM     27  C   UNL     1     -21.360  -1.770   7.391  0.00  0.00    +0.000 C 
BRANCH  19  28
ATOM     28  O   UNL     1     -19.520  -0.183   7.894  0.00  0.00    +0.000 OA
BRANCH  28  30
ATOM     29  C   UNL     1     -19.931   1.846   8.695  0.00  0.00    +0.000 C 
ATOM     30  C   UNL     1     -19.403   1.197   7.943  0.00  0.00    +0.000 C 
ATOM     31  O   UNL     1     -18.224   1.572   7.648  0.00  0.00    +0.000 OA
ENDBRANCH  28  30
ENDBRANCH  19  28
ENDBRANCH  18  23
ENDBRANCH   1  18
TORSDOF 6
ENDMDL
MODEL 6
REMARK VINA RESULT:      -7.1     14.341     16.066
REMARK  Name = 
REMARK  6 active torsions:
REMARK  status: ('A' for Active; 'I' for Inactive)
REMARK    1  A    between atoms: C_2  and  O_4
REMARK    2  A    between atoms: O_4  and  C_5
REMARK    3  A    between atoms: C_9  and  O_10
REMARK    4  A    between atoms: O_10  and  C_11
REMARK    5  A    between atoms: C_17  and  C_18
REMARK    6  A    between atoms: C_19  and  C_20
REMARK                            x       y       z     vdW  Elec       q    Type
REMARK                         _______ _______ _______ _____ _____    ______ ____
ROOT
ATOM      1  C   UNL     1     -24.672   9.039  -5.351  0.00  0.00    +0.000 A 
ATOM      2  C   UNL     1     -24.478  10.398  -5.585  0.00  0.00    +0.000 A 
ATOM      3  C   UNL     1     -23.914  11.236  -4.626  0.00  0.00    +0.000 A 
ATOM      4  O   UNL     1     -24.323  12.528  -4.402  0.00  0.00    +0.000 OA
ATOM      5  C   UNL     1     -22.982  10.616  -3.801  0.00  0.00    +0.000 A 
ATOM      6  C   UNL     1     -23.045   9.250  -3.552  0.00  0.00    +0.000 A 
ATOM      7  C   UNL     1     -23.992   8.497  -4.259  0.00  0.00    +0.000 A 
ENDROOT
BRANCH   7   8
ATOM      8  C   UNL     1     -24.718   7.425  -3.603  0.00  0.00    +0.000 C 
ATOM      9  C   UNL     1     -25.009   7.109  -2.429  0.00  0.00    +0.000 C 
BRANCH   9  10
ATOM     10  C   UNL     1     -24.243   6.924  -1.186  0.00  0.00    +0.000 A 
ATOM     11  C   UNL     1     -23.870   8.015  -0.396  0.00  0.00    +0.000 A 
ATOM     12  C   UNL     1     -22.538   8.318  -0.144  0.00  0.00    +0.000 A 
ATOM     13  O   UNL     1     -22.064   9.608   0.040  0.00  0.00    +0.000 OA
ATOM     14  C   UNL     1     -21.579   7.329  -0.326  0.00  0.00    +0.000 A 
ATOM     15  C   UNL     1     -22.037   6.063  -0.673  0.00  0.00    +0.000 A 
ATOM     16  O   UNL     1     -21.086   5.060  -0.676  0.00  0.00    +0.000 OA
ATOM     17  C   UNL     1     -23.372   5.850  -1.008  0.00  0.00    +0.000 A 
ENDBRANCH   9  10
ENDBRANCH   7   8
BRANCH   1  18
ATOM     18  O   UNL     1     -24.854   8.134  -6.415  0.00  0.00    +0.000 OA
BRANCH  18  23
ATOM     19  C   UNL     1     -28.539   7.923  -9.386  0.00  0.00    +0.000 C 
ATOM     20  C   UNL     1     -27.056   7.307  -9.519  0.00  0.00    +0.000 C 
ATOM     21  C   UNL     1     -26.216   8.657  -9.874  0.00  0.00    +0.000 C 
ATOM     22  C   UNL     1     -25.047   8.273  -8.762  0.00  0.00    +0.000 C 
ATOM     23  C   UNL     1     -25.656   8.980  -7.417  0.00  0.00    +0.000 C 
ATOM     24  C   UNL     1     -26.949   7.955  -7.419  0.00  0.00    +0.000 C 
ATOM     25  C   UNL     1     -28.001   8.984  -8.151  0.00  0.00    +0.000 C 
ATOM     26  N   UNL     1     -26.948   9.674  -8.995  0.00  0.00    +0.000 NA
ATOM     27  C   UNL     1     -27.230  10.875  -9.507  0.00  0.00    +0.000 C 
BRANCH  19  28
ATOM     28  O   UNL     1     -28.386   8.932 -10.528  0.00  0.00    +0.000 OA
BRANCH  28  30
ATOM     29  C   UNL     1     -30.381   8.654 -11.459  0.00  0.00    +0.000 C 
ATOM     30  C   UNL     1     -29.276   8.824 -11.585  0.00  0.00    +0.000 C 
ATOM     31  O   UNL     1     -28.959   9.603 -12.538  0.00  0.00    +0.000 OA
ENDBRANCH  28  30
ENDBRANCH  19  28
ENDBRANCH  18  23
ENDBRANCH   1  18
TORSDOF 6
ENDMDL
MODEL 7
REMARK VINA RESULT:      -7.1      2.120      3.587
REMARK  Name = 
REMARK  6 active torsions:
REMARK  status: ('A' for Active; 'I' for Inactive)
REMARK    1  A    between atoms: C_2  and  O_4
REMARK    2  A    between atoms: O_4  and  C_5
REMARK    3  A    between atoms: C_9  and  O_10
REMARK    4  A    between atoms: O_10  and  C_11
REMARK    5  A    between atoms: C_17  and  C_18
REMARK    6  A    between atoms: C_19  and  C_20
REMARK                            x       y       z     vdW  Elec       q    Type
REMARK                         _______ _______ _______ _____ _____    ______ ____
ROOT
ATOM      1  C   UNL     1     -34.167  -3.630  -4.663  0.00  0.00    +0.000 A 
ATOM      2  C   UNL     1     -33.183  -2.766  -5.137  0.00  0.00    +0.000 A 
ATOM      3  C   UNL     1     -32.156  -3.206  -5.967  0.00  0.00    +0.000 A 
ATOM      4  O   UNL     1     -30.861  -2.758  -5.887  0.00  0.00    +0.000 OA
ATOM      5  C   UNL     1     -32.510  -4.256  -6.809  0.00  0.00    +0.000 A 
ATOM      6  C   UNL     1     -33.524  -5.140  -6.461  0.00  0.00    +0.000 A 
ATOM      7  C   UNL     1     -34.265  -4.867  -5.303  0.00  0.00    +0.000 A 
ENDROOT
BRANCH   7   8
ATOM      8  C   UNL     1     -34.673  -5.943  -4.419  0.00  0.00    +0.000 C 
ATOM      9  C   UNL     1     -34.342  -6.368  -3.291  0.00  0.00    +0.000 C 
BRANCH   9  10
ATOM     10  C   UNL     1     -33.069  -6.760  -2.665  0.00  0.00    +0.000 A 
ATOM     11  C   UNL     1     -32.773  -6.409  -1.345  0.00  0.00    +0.000 A 
ATOM     12  C   UNL     1     -31.681  -5.613  -1.024  0.00  0.00    +0.000 A 
ATOM     13  O   UNL     1     -31.658  -4.733   0.048  0.00  0.00    +0.000 OA
ATOM     14  C   UNL     1     -30.647  -5.489  -1.944  0.00  0.00    +0.000 A 
ATOM     15  C   UNL     1     -30.742  -6.250  -3.105  0.00  0.00    +0.000 A 
ATOM     16  O   UNL     1     -29.625  -6.246  -3.919  0.00  0.00    +0.000 OA
ATOM     17  C   UNL     1     -31.906  -6.950  -3.411  0.00  0.00    +0.000 A 
ENDBRANCH   9  10
ENDBRANCH   7   8
BRANCH   1  18
ATOM     18  O   UNL     1     -35.396  -3.141  -4.177  0.00  0.00    +0.000 OA
BRANCH  18  23
ATOM     19  C   UNL     1     -38.527  -0.113  -6.044  0.00  0.00    +0.000 C 
ATOM     20  C   UNL     1     -38.742  -1.330  -5.010  0.00  0.00    +0.000 C 
ATOM     21  C   UNL     1     -38.617  -2.596  -6.028  0.00  0.00    +0.000 C 
ATOM     22  C   UNL     1     -37.598  -3.388  -4.984  0.00  0.00    +0.000 C 
ATOM     23  C   UNL     1     -36.146  -2.818  -5.480  0.00  0.00    +0.000 C 
ATOM     24  C   UNL     1     -36.542  -1.289  -5.005  0.00  0.00    +0.000 C 
ATOM     25  C   UNL     1     -36.996  -0.745  -6.489  0.00  0.00    +0.000 C 
ATOM     26  N   UNL     1     -37.521  -2.085  -6.967  0.00  0.00    +0.000 NA
ATOM     27  C   UNL     1     -37.663  -2.280  -8.280  0.00  0.00    +0.000 C 
BRANCH  19  28
ATOM     28  O   UNL     1     -39.298  -0.759  -7.198  0.00  0.00    +0.000 OA
BRANCH  28  30
ATOM     29  C   UNL     1     -40.269   1.150  -7.783  0.00  0.00    +0.000 C 
ATOM     30  C   UNL     1     -40.245   0.026  -7.837  0.00  0.00    +0.000 C 
ATOM     31  O   UNL     1     -40.564  -0.462  -8.967  0.00  0.00    +0.000 OA
ENDBRANCH  28  30
ENDBRANCH  19  28
ENDBRANCH  18  23
ENDBRANCH   1  18
TORSDOF 6
ENDMDL
MODEL 8
REMARK VINA RESULT:      -7.0      5.061      5.938
REMARK  Name = 
REMARK  6 active torsions:
REMARK  status: ('A' for Active; 'I' for Inactive)
REMARK    1  A    between atoms: C_2  and  O_4
REMARK    2  A    between atoms: O_4  and  C_5
REMARK    3  A    between atoms: C_9  and  O_10
REMARK    4  A    between atoms: O_10  and  C_11
REMARK    5  A    between atoms: C_17  and  C_18
REMARK    6  A    between atoms: C_19  and  C_20
REMARK                            x       y       z     vdW  Elec       q    Type
REMARK                         _______ _______ _______ _____ _____    ______ ____
ROOT
ATOM      1  C   UNL     1     -35.779  -6.706  -7.686  0.00  0.00    +0.000 A 
ATOM      2  C   UNL     1     -36.135  -7.941  -7.150  0.00  0.00    +0.000 A 
ATOM      3  C   UNL     1     -35.902  -8.257  -5.815  0.00  0.00    +0.000 A 
ATOM      4  O   UNL     1     -35.505  -9.498  -5.380  0.00  0.00    +0.000 OA
ATOM      5  C   UNL     1     -35.966  -7.170  -4.949  0.00  0.00    +0.000 A 
ATOM      6  C   UNL     1     -35.692  -5.884  -5.397  0.00  0.00    +0.000 A 
ATOM      7  C   UNL     1     -35.480  -5.697  -6.769  0.00  0.00    +0.000 A 
ENDROOT
BRANCH   7   8
ATOM      8  C   UNL     1     -34.460  -4.777  -7.238  0.00  0.00    +0.000 C 
ATOM      9  C   UNL     1     -33.249  -4.565  -7.005  0.00  0.00    +0.000 C 
BRANCH   9  10
ATOM     10  C   UNL     1     -32.454  -4.332  -5.789  0.00  0.00    +0.000 A 
ATOM     11  C   UNL     1     -31.450  -3.361  -5.756  0.00  0.00    +0.000 A 
ATOM     12  C   UNL     1     -30.122  -3.687  -5.511  0.00  0.00    +0.000 A 
ATOM     13  O   UNL     1     -29.048  -2.997  -6.054  0.00  0.00    +0.000 OA
ATOM     14  C   UNL     1     -29.829  -4.900  -4.901  0.00  0.00    +0.000 A 
ATOM     15  C   UNL     1     -30.908  -5.678  -4.498  0.00  0.00    +0.000 A 
ATOM     16  O   UNL     1     -30.596  -6.792  -3.740  0.00  0.00    +0.000 OA
ATOM     17  C   UNL     1     -32.210  -5.344  -4.861  0.00  0.00    +0.000 A 
ENDBRANCH   9  10
ENDBRANCH   7   8
BRANCH   1  18
ATOM     18  O   UNL     1     -36.357  -6.235  -8.882  0.00  0.00    +0.000 OA
BRANCH  18  23
ATOM     19  C   UNL     1     -35.019  -8.138 -13.011  0.00  0.00    +0.000 C 
ATOM     20  C   UNL     1     -36.147  -7.034 -12.689  0.00  0.00    +0.000 C 
ATOM     21  C   UNL     1     -37.310  -7.988 -12.062  0.00  0.00    +0.000 C 
ATOM     22  C   UNL     1     -37.542  -6.944 -10.794  0.00  0.00    +0.000 C 
ATOM     23  C   UNL     1     -36.456  -7.523  -9.715  0.00  0.00    +0.000 C 
ATOM     24  C   UNL     1     -35.200  -7.115 -10.704  0.00  0.00    +0.000 C 
ATOM     25  C   UNL     1     -34.989  -8.607 -11.361  0.00  0.00    +0.000 C 
ATOM     26  N   UNL     1     -36.453  -8.993 -11.290  0.00  0.00    +0.000 NA
ATOM     27  C   UNL     1     -36.772 -10.289 -11.355  0.00  0.00    +0.000 C 
BRANCH  19  28
ATOM     28  O   UNL     1     -35.998  -9.227 -13.459  0.00  0.00    +0.000 OA
BRANCH  28  30
ATOM     29  C   UNL     1     -35.722 -10.816 -14.985  0.00  0.00    +0.000 C 
ATOM     30  C   UNL     1     -35.839  -9.723 -14.744  0.00  0.00    +0.000 C 
ATOM     31  O   UNL     1     -36.528  -9.060 -15.583  0.00  0.00    +0.000 OA
ENDBRANCH  28  30
ENDBRANCH  19  28
ENDBRANCH  18  23
ENDBRANCH   1  18
TORSDOF 6
ENDMDL
MODEL 9
REMARK VINA RESULT:      -6.9      4.124      4.712
REMARK  Name = 
REMARK  6 active torsions:
REMARK  status: ('A' for Active; 'I' for Inactive)
REMARK    1  A    between atoms: C_2  and  O_4
REMARK    2  A    between atoms: O_4  and  C_5
REMARK    3  A    between atoms: C_9  and  O_10
REMARK    4  A    between atoms: O_10  and  C_11
REMARK    5  A    between atoms: C_17  and  C_18
REMARK    6  A    between atoms: C_19  and  C_20
REMARK                            x       y       z     vdW  Elec       q    Type
REMARK                         _______ _______ _______ _____ _____    ______ ____
ROOT
ATOM      1  C   UNL     1     -35.235  -5.332  -6.547  0.00  0.00    +0.000 A 
ATOM      2  C   UNL     1     -35.758  -6.125  -5.528  0.00  0.00    +0.000 A 
ATOM      3  C   UNL     1     -35.371  -5.965  -4.201  0.00  0.00    +0.000 A 
ATOM      4  O   UNL     1     -35.190  -7.007  -3.325  0.00  0.00    +0.000 OA
ATOM      5  C   UNL     1     -35.040  -4.659  -3.854  0.00  0.00    +0.000 A 
ATOM      6  C   UNL     1     -34.570  -3.764  -4.808  0.00  0.00    +0.000 A 
ATOM      7  C   UNL     1     -34.564  -4.175  -6.147  0.00  0.00    +0.000 A 
ENDROOT
BRANCH   7   8
ATOM      8  C   UNL     1     -33.463  -3.816  -7.022  0.00  0.00    +0.000 C 
ATOM      9  C   UNL     1     -32.377  -4.327  -7.374  0.00  0.00    +0.000 C 
BRANCH   9  10
ATOM     10  C   UNL     1     -31.216  -4.884  -6.662  0.00  0.00    +0.000 A 
ATOM     11  C   UNL     1     -31.378  -5.757  -5.584  0.00  0.00    +0.000 A 
ATOM     12  C   UNL     1     -30.909  -5.449  -4.313  0.00  0.00    +0.000 A 
ATOM     13  O   UNL     1     -31.523  -5.871  -3.143  0.00  0.00    +0.000 OA
ATOM     14  C   UNL     1     -29.929  -4.474  -4.178  0.00  0.00    +0.000 A 
ATOM     15  C   UNL     1     -29.420  -3.925  -5.350  0.00  0.00    +0.000 A 
ATOM     16  O   UNL     1     -28.329  -3.089  -5.197  0.00  0.00    +0.000 OA
ATOM     17  C   UNL     1     -30.001  -4.203  -6.584  0.00  0.00    +0.000 A 
ENDBRANCH   9  10
ENDBRANCH   7   8
BRANCH   1  18
ATOM     18  O   UNL     1     -35.894  -5.208  -7.787  0.00  0.00    +0.000 OA
BRANCH  18  23
ATOM     19  C   UNL     1     -35.796  -8.516 -11.179  0.00  0.00    +0.000 C 
ATOM     20  C   UNL     1     -36.719  -7.204 -11.028  0.00  0.00    +0.000 C 
ATOM     21  C   UNL     1     -37.753  -7.712  -9.876  0.00  0.00    +0.000 C 
ATOM     22  C   UNL     1     -37.576  -6.295  -9.032  0.00  0.00    +0.000 C 
ATOM     23  C   UNL     1     -36.298  -6.663  -8.077  0.00  0.00    +0.000 C 
ATOM     24  C   UNL     1     -35.307  -6.794  -9.390  0.00  0.00    +0.000 C 
ATOM     25  C   UNL     1     -35.383  -8.432  -9.516  0.00  0.00    +0.000 C 
ATOM     26  N   UNL     1     -36.805  -8.540  -9.004  0.00  0.00    +0.000 NA
ATOM     27  C   UNL     1     -37.228  -9.721  -8.544  0.00  0.00    +0.000 C 
BRANCH  19  28
ATOM     28  O   UNL     1     -36.935  -9.523 -11.000  0.00  0.00    +0.000 OA
BRANCH  28  30
ATOM     29  C   UNL     1     -37.567 -10.166 -13.028  0.00  0.00    +0.000 C 
ATOM     30  C   UNL     1     -37.134 -10.434 -12.025  0.00  0.00    +0.000 C 
ATOM     31  O   UNL     1     -36.206 -11.303 -12.058  0.00  0.00    +0.000 OA
ENDBRANCH  28  30
ENDBRANCH  19  28
ENDBRANCH  18  23
ENDBRANCH   1  18
TORSDOF 6
ENDMDL
MODEL 10
REMARK VINA RESULT:      -6.9      2.129      2.500
REMARK  Name = 
REMARK  6 active torsions:
REMARK  status: ('A' for Active; 'I' for Inactive)
REMARK    1  A    between atoms: C_2  and  O_4
REMARK    2  A    between atoms: O_4  and  C_5
REMARK    3  A    between atoms: C_9  and  O_10
REMARK    4  A    between atoms: O_10  and  C_11
REMARK    5  A    between atoms: C_17  and  C_18
REMARK    6  A    between atoms: C_19  and  C_20
REMARK                            x       y       z     vdW  Elec       q    Type
REMARK                         _______ _______ _______ _____ _____    ______ ____
ROOT
ATOM      1  C   UNL     1     -35.023  -4.214  -6.247  0.00  0.00    +0.000 A 
ATOM      2  C   UNL     1     -35.709  -4.982  -5.309  0.00  0.00    +0.000 A 
ATOM      3  C   UNL     1     -35.140  -5.332  -4.087  0.00  0.00    +0.000 A 
ATOM      4  O   UNL     1     -35.313  -6.552  -3.483  0.00  0.00    +0.000 OA
ATOM      5  C   UNL     1     -34.252  -4.389  -3.579  0.00  0.00    +0.000 A 
ATOM      6  C   UNL     1     -33.564  -3.527  -4.424  0.00  0.00    +0.000 A 
ATOM      7  C   UNL     1     -33.886  -3.547  -5.787  0.00  0.00    +0.000 A 
ENDROOT
BRANCH   7   8
ATOM      8  C   UNL     1     -32.846  -3.422  -6.792  0.00  0.00    +0.000 C 
ATOM      9  C   UNL     1     -31.881  -4.109  -7.192  0.00  0.00    +0.000 C 
BRANCH   9  10
ATOM     10  C   UNL     1     -30.734  -4.761  -6.540  0.00  0.00    +0.000 A 
ATOM     11  C   UNL     1     -30.918  -5.777  -5.598  0.00  0.00    +0.000 A 
ATOM     12  C   UNL     1     -30.477  -5.650  -4.287  0.00  0.00    +0.000 A 
ATOM     13  O   UNL     1     -31.115  -6.230  -3.201  0.00  0.00    +0.000 OA
ATOM     14  C   UNL     1     -29.501  -4.705  -3.995  0.00  0.00    +0.000 A 
ATOM     15  C   UNL     1     -28.968  -3.998  -5.068  0.00  0.00    +0.000 A 
ATOM     16  O   UNL     1     -27.882  -3.194  -4.777  0.00  0.00    +0.000 OA
ATOM     17  C   UNL     1     -29.523  -4.100  -6.341  0.00  0.00    +0.000 A 
ENDBRANCH   9  10
ENDBRANCH   7   8
BRANCH   1  18
ATOM     18  O   UNL     1     -35.708  -3.533  -7.273  0.00  0.00    +0.000 OA
BRANCH  18  23
ATOM     19  C   UNL     1     -39.435  -0.656  -7.806  0.00  0.00    +0.000 C 
ATOM     20  C   UNL     1     -37.871  -0.313  -7.621  0.00  0.00    +0.000 C 
ATOM     21  C   UNL     1     -37.701  -0.605  -6.027  0.00  0.00    +0.000 C 
ATOM     22  C   UNL     1     -36.313  -1.475  -6.292  0.00  0.00    +0.000 C 
ATOM     23  C   UNL     1     -36.928  -2.975  -6.524  0.00  0.00    +0.000 C 
ATOM     24  C   UNL     1     -37.693  -2.489  -7.902  0.00  0.00    +0.000 C 
ATOM     25  C   UNL     1     -39.169  -2.245  -7.219  0.00  0.00    +0.000 C 
ATOM     26  N   UNL     1     -38.624  -1.817  -5.871  0.00  0.00    +0.000 NA
ATOM     27  C   UNL     1     -39.435  -1.870  -4.811  0.00  0.00    +0.000 C 
BRANCH  19  28
ATOM     28  O   UNL     1     -39.877  -0.071  -6.462  0.00  0.00    +0.000 OA
BRANCH  28  30
ATOM     29  C   UNL     1     -41.797   0.950  -6.017  0.00  0.00    +0.000 C 
ATOM     30  C   UNL     1     -40.782   0.978  -6.501  0.00  0.00    +0.000 C 
ATOM     31  O   UNL     1     -40.190   2.102  -6.437  0.00  0.00    +0.000 OA
ENDBRANCH  28  30
ENDBRANCH  19  28
ENDBRANCH  18  23
ENDBRANCH   1  18
TORSDOF 6
ENDMDL
