MODEL 1
REMARK VINA RESULT:      -7.9      0.000      0.000
REMARK  Name = 
REMARK  6 active torsions:
REMARK  status: ('A' for Active; 'I' for Inactive)
REMARK    1  A    between atoms: C_2  and  O_4
REMARK    2  A    between atoms: O_4  and  C_5
REMARK    3  A    between atoms: C_9  and  O_10
REMARK    4  A    between atoms: O_10  and  C_11
REMARK    5  A    between atoms: C_17  and  C_18
REMARK    6  A    between atoms: C_19  and  C_20
REMARK                            x       y       z     vdW  Elec       q    Type
REMARK                         _______ _______ _______ _____ _____    ______ ____
ROOT
ATOM      1  C   UNL     1     -35.256  -4.138  -5.973  0.00  0.00    +0.000 A 
ATOM      2  C   UNL     1     -35.442  -2.782  -5.760  0.00  0.00    +0.000 A 
ATOM      3  C   UNL     1     -36.459  -2.047  -6.343  0.00  0.00    +0.000 A 
ATOM      4  O   UNL     1     -37.085  -1.114  -5.508  0.00  0.00    +0.000 OA
ATOM      5  C   UNL     1     -37.209  -2.731  -7.293  0.00  0.00    +0.000 A 
ATOM      6  C   UNL     1     -36.667  -3.855  -7.903  0.00  0.00    +0.000 A 
ATOM      7  C   UNL     1     -35.681  -4.561  -7.223  0.00  0.00    +0.000 A 
ENDROOT
BRANCH   7   8
ATOM      8  C   UNL     1     -35.211  -5.872  -7.675  0.00  0.00    +0.000 C 
ATOM      9  C   UNL     1     -36.050  -6.884  -7.821  0.00  0.00    +0.000 C 
BRANCH   9  10
ATOM     10  C   UNL     1     -35.747  -7.855  -8.875  0.00  0.00    +0.000 A 
ATOM     11  C   UNL     1     -35.727  -9.217  -8.610  0.00  0.00    +0.000 A 
ATOM     12  C   UNL     1     -35.694 -10.083  -9.666  0.00  0.00    +0.000 A 
ATOM     13  O   UNL     1     -35.795 -11.442  -9.465  0.00  0.00    +0.000 OA
ATOM     14  C   UNL     1     -35.569  -9.605 -10.953  0.00  0.00    +0.000 A 
ATOM     15  C   UNL     1     -35.231  -8.275 -11.137  0.00  0.00    +0.000 A 
ATOM     16  O   UNL     1     -35.063  -7.758 -12.424  0.00  0.00    +0.000 OA
ATOM     17  C   UNL     1     -35.360  -7.369 -10.113  0.00  0.00    +0.000 A 
ENDBRANCH   9  10
ENDBRANCH   7   8
BRANCH   1  18
ATOM     18  O   UNL     1     -34.491  -4.962  -5.138  0.00  0.00    +0.000 OA
BRANCH  18  23
ATOM     19  C   UNL     1     -31.194  -4.442  -3.566  0.00  0.00    +0.000 C 
ATOM     20  C   UNL     1     -30.968  -5.083  -2.099  0.00  0.00    +0.000 C 
ATOM     21  C   UNL     1     -31.498  -5.265  -3.586  0.00  0.00    +0.000 C 
ATOM     22  C   UNL     1     -33.094  -4.784  -3.271  0.00  0.00    +0.000 C 
ATOM     23  C   UNL     1     -33.178  -4.224  -4.846  0.00  0.00    +0.000 C 
ATOM     24  C   UNL     1     -32.297  -5.502  -5.466  0.00  0.00    +0.000 C 
ATOM     25  C   UNL     1     -32.426  -5.739  -3.875  0.00  0.00    +0.000 C 
ATOM     26  N   UNL     1     -31.482  -6.810  -3.543  0.00  0.00    +0.000 NA
ATOM     27  C   UNL     1     -31.824  -7.198  -2.237  0.00  0.00    +0.000 C 
BRANCH  19  28
ATOM     28  O   UNL     1     -30.080  -5.137  -4.352  0.00  0.00    +0.000 OA
BRANCH  28  30
ATOM     29  C   UNL     1     -29.115  -3.606  -5.439  0.00  0.00    +0.000 C 
ATOM     30  C   UNL     1     -29.135  -4.405  -4.936  0.00  0.00    +0.000 C 
ATOM     31  O   UNL     1     -28.224  -4.250  -4.037  0.00  0.00    +0.000 OA
ENDBRANCH  28  30
ENDBRANCH  19  28
ENDBRANCH  18  23
ENDBRANCH   1  18
TORSDOF 6
ENDMDL
MODEL 2
REMARK VINA RESULT:      -7.6     27.074     30.856
REMARK  Name = 
REMARK  6 active torsions:
REMARK  status: ('A' for Active; 'I' for Inactive)
REMARK    1  A    between atoms: C_2  and  O_4
REMARK    2  A    between atoms: O_4  and  C_5
REMARK    3  A    between atoms: C_9  and  O_10
REMARK    4  A    between atoms: O_10  and  C_11
REMARK    5  A    between atoms: C_17  and  C_18
REMARK    6  A    between atoms: C_19  and  C_20
REMARK                            x       y       z     vdW  Elec       q    Type
REMARK                         _______ _______ _______ _____ _____    ______ ____
ROOT
ATOM      1  C   UNL     1     -12.930  18.132   0.270  0.00  0.00    +0.000 A 
ATOM      2  C   UNL     1     -13.045  19.472   0.598  0.00  0.00    +0.000 A 
ATOM      3  C   UNL     1     -12.469  20.039   1.721  0.00  0.00    +0.000 A 
ATOM      4  O   UNL     1     -11.889  21.298   1.531  0.00  0.00    +0.000 OA
ATOM      5  C   UNL     1     -11.882  19.137   2.600  0.00  0.00    +0.000 A 
ATOM      6  C   UNL     1     -12.271  17.803   2.562  0.00  0.00    +0.000 A 
ATOM      7  C   UNL     1     -12.796  17.305   1.375  0.00  0.00    +0.000 A 
ENDROOT
BRANCH   7   8
ATOM      8  C   UNL     1     -13.023  15.874   1.165  0.00  0.00    +0.000 C 
ATOM      9  C   UNL     1     -13.027  15.027   2.181  0.00  0.00    +0.000 C 
BRANCH   9  10
ATOM     10  C   UNL     1     -13.906  13.861   2.074  0.00  0.00    +0.000 A 
ATOM     11  C   UNL     1     -13.451  12.590   2.394  0.00  0.00    +0.000 A 
ATOM     12  C   UNL     1     -14.369  11.586   2.524  0.00  0.00    +0.000 A 
ATOM     13  O   UNL     1     -13.987  10.335   2.957  0.00  0.00    +0.000 OA
ATOM     14  C   UNL     1     -15.696  11.815   2.232  0.00  0.00    +0.000 A 
ATOM     15  C   UNL     1     -16.038  12.987   1.577  0.00  0.00    +0.000 A 
ATOM     16  O   UNL     1     -17.368  13.244   1.234  0.00  0.00    +0.000 OA
ATOM     17  C   UNL     1     -15.165  14.046   1.529  0.00  0.00    +0.000 A 
ENDBRANCH   9  10
ENDBRANCH   7   8
BRANCH   1  18
ATOM     18  O   UNL     1     -13.176  17.616  -1.009  0.00  0.00    +0.000 OA
BRANCH  18  23
ATOM     19  C   UNL     1     -15.563  18.778  -3.571  0.00  0.00    +0.000 C 
ATOM     20  C   UNL     1     -14.959  19.169  -5.018  0.00  0.00    +0.000 C 
ATOM     21  C   UNL     1     -15.008  18.141  -3.807  0.00  0.00    +0.000 C 
ATOM     22  C   UNL     1     -13.715  18.818  -2.941  0.00  0.00    +0.000 C 
ATOM     23  C   UNL     1     -14.451  18.288  -1.535  0.00  0.00    +0.000 C 
ATOM     24  C   UNL     1     -14.958  16.846  -2.211  0.00  0.00    +0.000 C 
ATOM     25  C   UNL     1     -14.155  17.653  -3.355  0.00  0.00    +0.000 C 
ATOM     26  N   UNL     1     -14.430  16.958  -4.616  0.00  0.00    +0.000 NA
ATOM     27  C   UNL     1     -13.500  17.484  -5.527  0.00  0.00    +0.000 C 
BRANCH  19  28
ATOM     28  O   UNL     1     -16.547  17.674  -3.966  0.00  0.00    +0.000 OA
BRANCH  28  30
ATOM     29  C   UNL     1     -18.549  17.794  -4.628  0.00  0.00    +0.000 C 
ATOM     30  C   UNL     1     -17.850  17.942  -4.009  0.00  0.00    +0.000 C 
ATOM     31  O   UNL     1     -18.318  17.527  -2.882  0.00  0.00    +0.000 OA
ENDBRANCH  28  30
ENDBRANCH  19  28
ENDBRANCH  18  23
ENDBRANCH   1  18
TORSDOF 6
ENDMDL
MODEL 3
REMARK VINA RESULT:      -7.3      2.955      6.506
REMARK  Name = 
REMARK  6 active torsions:
REMARK  status: ('A' for Active; 'I' for Inactive)
REMARK    1  A    between atoms: C_2  and  O_4
REMARK    2  A    between atoms: O_4  and  C_5
REMARK    3  A    between atoms: C_9  and  O_10
REMARK    4  A    between atoms: O_10  and  C_11
REMARK    5  A    between atoms: C_17  and  C_18
REMARK    6  A    between atoms: C_19  and  C_20
REMARK                            x       y       z     vdW  Elec       q    Type
REMARK                         _______ _______ _______ _____ _____    ______ ____
ROOT
ATOM      1  C   UNL     1     -31.535  -4.990  -5.403  0.00  0.00    +0.000 A 
ATOM      2  C   UNL     1     -30.855  -3.784  -5.399  0.00  0.00    +0.000 A 
ATOM      3  C   UNL     1     -29.545  -3.643  -4.978  0.00  0.00    +0.000 A 
ATOM      4  O   UNL     1     -28.747  -2.798  -5.758  0.00  0.00    +0.000 OA
ATOM      5  C   UNL     1     -28.986  -4.780  -4.405  0.00  0.00    +0.000 A 
ATOM      6  C   UNL     1     -29.824  -5.764  -3.896  0.00  0.00    +0.000 A 
ATOM      7  C   UNL     1     -31.111  -5.862  -4.412  0.00  0.00    +0.000 A 
ENDROOT
BRANCH   7   8
ATOM      8  C   UNL     1     -31.987  -6.996  -4.107  0.00  0.00    +0.000 C 
ATOM      9  C   UNL     1     -32.967  -6.883  -3.226  0.00  0.00    +0.000 C 
BRANCH   9  10
ATOM     10  C   UNL     1     -34.169  -7.686  -3.460  0.00  0.00    +0.000 A 
ATOM     11  C   UNL     1     -34.624  -7.935  -4.747  0.00  0.00    +0.000 A 
ATOM     12  C   UNL     1     -35.586  -8.889  -4.922  0.00  0.00    +0.000 A 
ATOM     13  O   UNL     1     -35.987  -9.261  -6.187  0.00  0.00    +0.000 OA
ATOM     14  C   UNL     1     -36.164  -9.502  -3.831  0.00  0.00    +0.000 A 
ATOM     15  C   UNL     1     -35.938  -8.967  -2.574  0.00  0.00    +0.000 A 
ATOM     16  O   UNL     1     -36.530  -9.539  -1.445  0.00  0.00    +0.000 OA
ATOM     17  C   UNL     1     -34.907  -8.086  -2.359  0.00  0.00    +0.000 A 
ENDBRANCH   9  10
ENDBRANCH   7   8
BRANCH   1  18
ATOM     18  O   UNL     1     -32.697  -5.229  -6.145  0.00  0.00    +0.000 OA
BRANCH  18  23
ATOM     19  C   UNL     1     -35.598  -3.018  -6.701  0.00  0.00    +0.000 C 
ATOM     20  C   UNL     1     -36.783  -3.579  -7.647  0.00  0.00    +0.000 C 
ATOM     21  C   UNL     1     -35.770  -3.841  -6.450  0.00  0.00    +0.000 C 
ATOM     22  C   UNL     1     -34.526  -4.492  -7.403  0.00  0.00    +0.000 C 
ATOM     23  C   UNL     1     -33.432  -3.890  -6.289  0.00  0.00    +0.000 C 
ATOM     24  C   UNL     1     -34.399  -4.256  -4.975  0.00  0.00    +0.000 C 
ATOM     25  C   UNL     1     -35.188  -4.739  -6.297  0.00  0.00    +0.000 C 
ATOM     26  N   UNL     1     -36.558  -5.037  -5.870  0.00  0.00    +0.000 NA
ATOM     27  C   UNL     1     -37.129  -5.729  -6.950  0.00  0.00    +0.000 C 
BRANCH  19  28
ATOM     28  O   UNL     1     -36.369  -2.764  -5.404  0.00  0.00    +0.000 OA
BRANCH  28  30
ATOM     29  C   UNL     1     -37.020  -0.768  -5.179  0.00  0.00    +0.000 C 
ATOM     30  C   UNL     1     -36.497  -1.520  -4.949  0.00  0.00    +0.000 C 
ATOM     31  O   UNL     1     -36.640  -1.640  -3.673  0.00  0.00    +0.000 OA
ENDBRANCH  28  30
ENDBRANCH  19  28
ENDBRANCH  18  23
ENDBRANCH   1  18
TORSDOF 6
ENDMDL
MODEL 4
REMARK VINA RESULT:      -7.3     15.475     19.813
REMARK  Name = 
REMARK  6 active torsions:
REMARK  status: ('A' for Active; 'I' for Inactive)
REMARK    1  A    between atoms: C_2  and  O_4
REMARK    2  A    between atoms: O_4  and  C_5
REMARK    3  A    between atoms: C_9  and  O_10
REMARK    4  A    between atoms: O_10  and  C_11
REMARK    5  A    between atoms: C_17  and  C_18
REMARK    6  A    between atoms: C_19  and  C_20
REMARK                            x       y       z     vdW  Elec       q    Type
REMARK                         _______ _______ _______ _____ _____    ______ ____
ROOT
ATOM      1  C   UNL     1     -21.025  -3.899   9.368  0.00  0.00    +0.000 A 
ATOM      2  C   UNL     1     -20.184  -4.804   9.993  0.00  0.00    +0.000 A 
ATOM      3  C   UNL     1     -20.270  -6.175   9.822  0.00  0.00    +0.000 A 
ATOM      4  O   UNL     1     -19.047  -6.845   9.699  0.00  0.00    +0.000 OA
ATOM      5  C   UNL     1     -21.369  -6.608   9.091  0.00  0.00    +0.000 A 
ATOM      6  C   UNL     1     -22.478  -5.779   8.977  0.00  0.00    +0.000 A 
ATOM      7  C   UNL     1     -22.290  -4.408   9.116  0.00  0.00    +0.000 A 
ENDROOT
BRANCH   7   8
ATOM      8  C   UNL     1     -23.342  -3.443   8.794  0.00  0.00    +0.000 C 
ATOM      9  C   UNL     1     -23.937  -3.449   7.612  0.00  0.00    +0.000 C 
BRANCH   9  10
ATOM     10  C   UNL     1     -25.340  -3.035   7.569  0.00  0.00    +0.000 A 
ATOM     11  C   UNL     1     -26.220  -3.581   6.644  0.00  0.00    +0.000 A 
ATOM     12  C   UNL     1     -27.557  -3.356   6.810  0.00  0.00    +0.000 A 
ATOM     13  O   UNL     1     -28.480  -3.971   5.992  0.00  0.00    +0.000 OA
ATOM     14  C   UNL     1     -28.002  -2.516   7.807  0.00  0.00    +0.000 A 
ATOM     15  C   UNL     1     -27.080  -1.721   8.466  0.00  0.00    +0.000 A 
ATOM     16  O   UNL     1     -27.493  -0.833   9.462  0.00  0.00    +0.000 OA
ATOM     17  C   UNL     1     -25.737  -1.998   8.395  0.00  0.00    +0.000 A 
ENDBRANCH   9  10
ENDBRANCH   7   8
BRANCH   1  18
ATOM     18  O   UNL     1     -20.741  -2.535   9.229  0.00  0.00    +0.000 OA
BRANCH  18  23
ATOM     19  C   UNL     1     -19.091  -0.698   6.488  0.00  0.00    +0.000 C 
ATOM     20  C   UNL     1     -19.804   0.660   5.976  0.00  0.00    +0.000 C 
ATOM     21  C   UNL     1     -19.316  -0.233   7.197  0.00  0.00    +0.000 C 
ATOM     22  C   UNL     1     -20.775  -1.074   7.403  0.00  0.00    +0.000 C 
ATOM     23  C   UNL     1     -19.883  -2.373   7.968  0.00  0.00    +0.000 C 
ATOM     24  C   UNL     1     -18.801  -1.409   8.802  0.00  0.00    +0.000 C 
ATOM     25  C   UNL     1     -19.873  -0.427   8.103  0.00  0.00    +0.000 C 
ATOM     26  N   UNL     1     -19.323   0.927   8.219  0.00  0.00    +0.000 NA
ATOM     27  C   UNL     1     -20.389   1.778   7.883  0.00  0.00    +0.000 C 
BRANCH  19  28
ATOM     28  O   UNL     1     -17.726  -0.155   6.916  0.00  0.00    +0.000 OA
BRANCH  28  30
ATOM     29  C   UNL     1     -16.323  -1.495   6.082  0.00  0.00    +0.000 C 
ATOM     30  C   UNL     1     -16.622  -0.640   6.354  0.00  0.00    +0.000 C 
ATOM     31  O   UNL     1     -16.393   0.125   5.343  0.00  0.00    +0.000 OA
ENDBRANCH  28  30
ENDBRANCH  19  28
ENDBRANCH  18  23
ENDBRANCH   1  18
TORSDOF 6
ENDMDL
MODEL 5
REMARK VINA RESULT:      -7.2      2.826      7.339
REMARK  Name = 
REMARK  6 active torsions:
REMARK  status: ('A' for Active; 'I' for Inactive)
REMARK    1  A    between atoms: C_2  and  O_4
REMARK    2  A    between atoms: O_4  and  C_5
REMARK    3  A    between atoms: C_9  and  O_10
REMARK    4  A    between atoms: O_10  and  C_11
REMARK    5  A    between atoms: C_17  and  C_18
REMARK    6  A    between atoms: C_19  and  C_20
REMARK                            x       y       z     vdW  Elec       q    Type
REMARK                         _______ _______ _______ _____ _____    ______ ____
ROOT
ATOM      1  C   UNL     1     -32.584  -6.209  -3.008  0.00  0.00    +0.000 A 
ATOM      2  C   UNL     1     -31.629  -7.195  -3.192  0.00  0.00    +0.000 A 
ATOM      3  C   UNL     1     -30.272  -6.990  -3.015  0.00  0.00    +0.000 A 
ATOM      4  O   UNL     1     -29.584  -8.025  -2.371  0.00  0.00    +0.000 OA
ATOM      5  C   UNL     1     -29.902  -5.670  -2.785  0.00  0.00    +0.000 A 
ATOM      6  C   UNL     1     -30.759  -4.648  -3.173  0.00  0.00    +0.000 A 
ATOM      7  C   UNL     1     -32.116  -4.933  -3.279  0.00  0.00    +0.000 A 
ENDROOT
BRANCH   7   8
ATOM      8  C   UNL     1     -33.119  -3.882  -3.459  0.00  0.00    +0.000 C 
ATOM      9  C   UNL     1     -33.553  -3.552  -4.665  0.00  0.00    +0.000 C 
BRANCH   9  10
ATOM     10  C   UNL     1     -34.940  -3.096  -4.772  0.00  0.00    +0.000 A 
ATOM     11  C   UNL     1     -35.926  -3.599  -3.935  0.00  0.00    +0.000 A 
ATOM     12  C   UNL     1     -37.135  -2.963  -3.902  0.00  0.00    +0.000 A 
ATOM     13  O   UNL     1     -38.107  -3.346  -3.003  0.00  0.00    +0.000 OA
ATOM     14  C   UNL     1     -37.396  -1.920  -4.764  0.00  0.00    +0.000 A 
ATOM     15  C   UNL     1     -36.523  -1.694  -5.815  0.00  0.00    +0.000 A 
ATOM     16  O   UNL     1     -36.767  -0.668  -6.730  0.00  0.00    +0.000 OA
ATOM     17  C   UNL     1     -35.263  -2.241  -5.812  0.00  0.00    +0.000 A 
ENDBRANCH   9  10
ENDBRANCH   7   8
BRANCH   1  18
ATOM     18  O   UNL     1     -33.948  -6.468  -2.820  0.00  0.00    +0.000 OA
BRANCH  18  23
ATOM     19  C   UNL     1     -36.056  -9.042  -4.415  0.00  0.00    +0.000 C 
ATOM     20  C   UNL     1     -37.613  -9.090  -3.984  0.00  0.00    +0.000 C 
ATOM     21  C   UNL     1     -36.359  -8.219  -4.426  0.00  0.00    +0.000 C 
ATOM     22  C   UNL     1     -35.803  -7.892  -2.857  0.00  0.00    +0.000 C 
ATOM     23  C   UNL     1     -34.252  -7.819  -3.481  0.00  0.00    +0.000 C 
ATOM     24  C   UNL     1     -34.734  -7.047  -4.884  0.00  0.00    +0.000 C 
ATOM     25  C   UNL     1     -36.056  -7.278  -3.989  0.00  0.00    +0.000 C 
ATOM     26  N   UNL     1     -37.197  -6.996  -4.865  0.00  0.00    +0.000 NA
ATOM     27  C   UNL     1     -38.301  -6.910  -4.001  0.00  0.00    +0.000 C 
BRANCH  19  28
ATOM     28  O   UNL     1     -36.187  -8.808  -5.922  0.00  0.00    +0.000 OA
BRANCH  28  30
ATOM     29  C   UNL     1     -36.033 -10.545  -7.112  0.00  0.00    +0.000 C 
ATOM     30  C   UNL     1     -35.722  -9.721  -6.770  0.00  0.00    +0.000 C 
ATOM     31  O   UNL     1     -35.346  -9.056  -7.809  0.00  0.00    +0.000 OA
ENDBRANCH  28  30
ENDBRANCH  19  28
ENDBRANCH  18  23
ENDBRANCH   1  18
TORSDOF 6
ENDMDL
MODEL 6
REMARK VINA RESULT:      -7.0     13.917     16.645
REMARK  Name = 
REMARK  6 active torsions:
REMARK  status: ('A' for Active; 'I' for Inactive)
REMARK    1  A    between atoms: C_2  and  O_4
REMARK    2  A    between atoms: O_4  and  C_5
REMARK    3  A    between atoms: C_9  and  O_10
REMARK    4  A    between atoms: O_10  and  C_11
REMARK    5  A    between atoms: C_17  and  C_18
REMARK    6  A    between atoms: C_19  and  C_20
REMARK                            x       y       z     vdW  Elec       q    Type
REMARK                         _______ _______ _______ _____ _____    ______ ____
ROOT
ATOM      1  C   UNL     1     -23.551   8.176  -2.823  0.00  0.00    +0.000 A 
ATOM      2  C   UNL     1     -22.567   8.747  -2.034  0.00  0.00    +0.000 A 
ATOM      3  C   UNL     1     -22.339  10.109  -1.958  0.00  0.00    +0.000 A 
ATOM      4  O   UNL     1     -22.071  10.606  -0.677  0.00  0.00    +0.000 OA
ATOM      5  C   UNL     1     -23.070  10.879  -2.855  0.00  0.00    +0.000 A 
ATOM      6  C   UNL     1     -23.591  10.279  -3.995  0.00  0.00    +0.000 A 
ATOM      7  C   UNL     1     -23.833   8.911  -3.965  0.00  0.00    +0.000 A 
ENDROOT
BRANCH   7   8
ATOM      8  C   UNL     1     -24.582   8.230  -5.024  0.00  0.00    +0.000 C 
ATOM      9  C   UNL     1     -25.822   8.583  -5.317  0.00  0.00    +0.000 C 
BRANCH   9  10
ATOM     10  C   UNL     1     -26.245   8.438  -6.711  0.00  0.00    +0.000 A 
ATOM     11  C   UNL     1     -27.588   8.344  -7.046  0.00  0.00    +0.000 A 
ATOM     12  C   UNL     1     -27.940   8.469  -8.361  0.00  0.00    +0.000 A 
ATOM     13  O   UNL     1     -29.265   8.504  -8.735  0.00  0.00    +0.000 OA
ATOM     14  C   UNL     1     -26.968   8.570  -9.333  0.00  0.00    +0.000 A 
ATOM     15  C   UNL     1     -25.654   8.297  -8.989  0.00  0.00    +0.000 A 
ATOM     16  O   UNL     1     -24.644   8.358  -9.951  0.00  0.00    +0.000 OA
ATOM     17  C   UNL     1     -25.263   8.274  -7.673  0.00  0.00    +0.000 A 
ENDBRANCH   9  10
ENDBRANCH   7   8
BRANCH   1  18
ATOM     18  O   UNL     1     -24.038   6.875  -2.646  0.00  0.00    +0.000 OA
BRANCH  18  23
ATOM     19  C   UNL     1     -26.433   5.495  -0.203  0.00  0.00    +0.000 C 
ATOM     20  C   UNL     1     -27.151   4.097  -0.583  0.00  0.00    +0.000 C 
ATOM     21  C   UNL     1     -25.813   4.951  -0.500  0.00  0.00    +0.000 C 
ATOM     22  C   UNL     1     -25.893   5.569  -2.078  0.00  0.00    +0.000 C 
ATOM     23  C   UNL     1     -25.087   6.928  -1.528  0.00  0.00    +0.000 C 
ATOM     24  C   UNL     1     -24.081   6.059  -0.515  0.00  0.00    +0.000 C 
ATOM     25  C   UNL     1     -25.043   4.997  -1.258  0.00  0.00    +0.000 C 
ATOM     26  N   UNL     1     -24.872   3.725  -0.549  0.00  0.00    +0.000 NA
ATOM     27  C   UNL     1     -25.472   2.767  -1.382  0.00  0.00    +0.000 C 
BRANCH  19  28
ATOM     28  O   UNL     1     -25.742   5.110   1.107  0.00  0.00    +0.000 OA
BRANCH  28  30
ATOM     29  C   UNL     1     -26.698   5.603   2.924  0.00  0.00    +0.000 C 
ATOM     30  C   UNL     1     -26.070   5.741   2.232  0.00  0.00    +0.000 C 
ATOM     31  O   UNL     1     -24.953   5.951   2.839  0.00  0.00    +0.000 OA
ENDBRANCH  28  30
ENDBRANCH  19  28
ENDBRANCH  18  23
ENDBRANCH   1  18
TORSDOF 6
ENDMDL
MODEL 7
REMARK VINA RESULT:      -6.9      3.192      4.326
REMARK  Name = 
REMARK  6 active torsions:
REMARK  status: ('A' for Active; 'I' for Inactive)
REMARK    1  A    between atoms: C_2  and  O_4
REMARK    2  A    between atoms: O_4  and  C_5
REMARK    3  A    between atoms: C_9  and  O_10
REMARK    4  A    between atoms: O_10  and  C_11
REMARK    5  A    between atoms: C_17  and  C_18
REMARK    6  A    between atoms: C_19  and  C_20
REMARK                            x       y       z     vdW  Elec       q    Type
REMARK                         _______ _______ _______ _____ _____    ______ ____
ROOT
ATOM      1  C   UNL     1     -35.158  -4.575  -5.122  0.00  0.00    +0.000 A 
ATOM      2  C   UNL     1     -35.530  -3.260  -5.348  0.00  0.00    +0.000 A 
ATOM      3  C   UNL     1     -36.426  -2.569  -4.552  0.00  0.00    +0.000 A 
ATOM      4  O   UNL     1     -36.085  -1.239  -4.275  0.00  0.00    +0.000 OA
ATOM      5  C   UNL     1     -37.060  -3.333  -3.580  0.00  0.00    +0.000 A 
ATOM      6  C   UNL     1     -37.122  -4.712  -3.736  0.00  0.00    +0.000 A 
ATOM      7  C   UNL     1     -36.152  -5.329  -4.516  0.00  0.00    +0.000 A 
ENDROOT
BRANCH   7   8
ATOM      8  C   UNL     1     -35.998  -6.785  -4.559  0.00  0.00    +0.000 C 
ATOM      9  C   UNL     1     -35.463  -7.445  -3.545  0.00  0.00    +0.000 C 
BRANCH   9  10
ATOM     10  C   UNL     1     -35.954  -8.803  -3.300  0.00  0.00    +0.000 A 
ATOM     11  C   UNL     1     -35.862  -9.784  -4.278  0.00  0.00    +0.000 A 
ATOM     12  C   UNL     1     -36.094 -11.081  -3.918  0.00  0.00    +0.000 A 
ATOM     13  O   UNL     1     -35.900 -12.106  -4.818  0.00  0.00    +0.000 OA
ATOM     14  C   UNL     1     -36.516 -11.384  -2.642  0.00  0.00    +0.000 A 
ATOM     15  C   UNL     1     -36.937 -10.352  -1.820  0.00  0.00    +0.000 A 
ATOM     16  O   UNL     1     -37.403 -10.618  -0.530  0.00  0.00    +0.000 OA
ATOM     17  C   UNL     1     -36.621  -9.048  -2.112  0.00  0.00    +0.000 A 
ENDBRANCH   9  10
ENDBRANCH   7   8
BRANCH   1  18
ATOM     18  O   UNL     1     -34.013  -5.168  -5.667  0.00  0.00    +0.000 OA
BRANCH  18  23
ATOM     19  C   UNL     1     -30.921  -4.366  -3.821  0.00  0.00    +0.000 C 
ATOM     20  C   UNL     1     -30.743  -5.029  -2.357  0.00  0.00    +0.000 C 
ATOM     21  C   UNL     1     -31.134  -5.215  -3.886  0.00  0.00    +0.000 C 
ATOM     22  C   UNL     1     -32.791  -4.911  -3.688  0.00  0.00    +0.000 C 
ATOM     23  C   UNL     1     -32.811  -4.310  -5.250  0.00  0.00    +0.000 C 
ATOM     24  C   UNL     1     -31.756  -5.470  -5.829  0.00  0.00    +0.000 C 
ATOM     25  C   UNL     1     -31.983  -5.772  -4.260  0.00  0.00    +0.000 C 
ATOM     26  N   UNL     1     -30.960  -6.751  -3.880  0.00  0.00    +0.000 NA
ATOM     27  C   UNL     1     -31.359  -7.215  -2.616  0.00  0.00    +0.000 C 
BRANCH  19  28
ATOM     28  O   UNL     1     -29.682  -4.918  -4.531  0.00  0.00    +0.000 OA
BRANCH  28  30
ATOM     29  C   UNL     1     -28.825  -3.226  -5.460  0.00  0.00    +0.000 C 
ATOM     30  C   UNL     1     -28.790  -4.074  -5.044  0.00  0.00    +0.000 C 
ATOM     31  O   UNL     1     -27.876  -3.960  -4.143  0.00  0.00    +0.000 OA
ENDBRANCH  28  30
ENDBRANCH  19  28
ENDBRANCH  18  23
ENDBRANCH   1  18
TORSDOF 6
ENDMDL
MODEL 8
REMARK VINA RESULT:      -6.9     13.820     15.831
REMARK  Name = 
REMARK  6 active torsions:
REMARK  status: ('A' for Active; 'I' for Inactive)
REMARK    1  A    between atoms: C_2  and  O_4
REMARK    2  A    between atoms: O_4  and  C_5
REMARK    3  A    between atoms: C_9  and  O_10
REMARK    4  A    between atoms: O_10  and  C_11
REMARK    5  A    between atoms: C_17  and  C_18
REMARK    6  A    between atoms: C_19  and  C_20
REMARK                            x       y       z     vdW  Elec       q    Type
REMARK                         _______ _______ _______ _____ _____    ______ ____
ROOT
ATOM      1  C   UNL     1     -28.377   2.303   3.791  0.00  0.00    +0.000 A 
ATOM      2  C   UNL     1     -27.986   3.614   3.576  0.00  0.00    +0.000 A 
ATOM      3  C   UNL     1     -27.535   4.090   2.358  0.00  0.00    +0.000 A 
ATOM      4  O   UNL     1     -28.002   5.358   1.995  0.00  0.00    +0.000 OA
ATOM      5  C   UNL     1     -27.348   3.120   1.381  0.00  0.00    +0.000 A 
ATOM      6  C   UNL     1     -27.183   1.795   1.763  0.00  0.00    +0.000 A 
ATOM      7  C   UNL     1     -27.711   1.392   2.985  0.00  0.00    +0.000 A 
ENDROOT
BRANCH   7   8
ATOM      8  C   UNL     1     -27.787  -0.017   3.373  0.00  0.00    +0.000 C 
ATOM      9  C   UNL     1     -26.819  -0.585   4.074  0.00  0.00    +0.000 C 
BRANCH   9  10
ATOM     10  C   UNL     1     -27.205  -1.650   5.002  0.00  0.00    +0.000 A 
ATOM     11  C   UNL     1     -28.248  -1.473   5.901  0.00  0.00    +0.000 A 
ATOM     12  C   UNL     1     -28.731  -2.569   6.558  0.00  0.00    +0.000 A 
ATOM     13  O   UNL     1     -29.840  -2.472   7.369  0.00  0.00    +0.000 OA
ATOM     14  C   UNL     1     -28.117  -3.794   6.410  0.00  0.00    +0.000 A 
ATOM     15  C   UNL     1     -26.877  -3.846   5.795  0.00  0.00    +0.000 A 
ATOM     16  O   UNL     1     -26.207  -5.063   5.653  0.00  0.00    +0.000 OA
ATOM     17  C   UNL     1     -26.422  -2.791   5.042  0.00  0.00    +0.000 A 
ENDBRANCH   9  10
ENDBRANCH   7   8
BRANCH   1  18
ATOM     18  O   UNL     1     -29.165   1.889   4.872  0.00  0.00    +0.000 OA
BRANCH  18  23
ATOM     19  C   UNL     1     -29.511   3.254   8.283  0.00  0.00    +0.000 C 
ATOM     20  C   UNL     1     -30.857   2.875   9.095  0.00  0.00    +0.000 C 
ATOM     21  C   UNL     1     -29.646   2.392   8.185  0.00  0.00    +0.000 C 
ATOM     22  C   UNL     1     -30.444   2.589   6.701  0.00  0.00    +0.000 C 
ATOM     23  C   UNL     1     -28.955   2.903   6.005  0.00  0.00    +0.000 C 
ATOM     24  C   UNL     1     -28.160   1.750   6.918  0.00  0.00    +0.000 C 
ATOM     25  C   UNL     1     -29.715   1.711   7.348  0.00  0.00    +0.000 C 
ATOM     26  N   UNL     1     -29.781   0.901   8.569  0.00  0.00    +0.000 NA
ATOM     27  C   UNL     1     -31.148   0.634   8.749  0.00  0.00    +0.000 C 
BRANCH  19  28
ATOM     28  O   UNL     1     -28.445   2.690   9.226  0.00  0.00    +0.000 OA
BRANCH  28  30
ATOM     29  C   UNL     1     -27.537   4.324  10.207  0.00  0.00    +0.000 C 
ATOM     30  C   UNL     1     -27.526   3.505   9.737  0.00  0.00    +0.000 C 
ATOM     31  O   UNL     1     -26.745   2.743  10.424  0.00  0.00    +0.000 OA
ENDBRANCH  28  30
ENDBRANCH  19  28
ENDBRANCH  18  23
ENDBRANCH   1  18
TORSDOF 6
ENDMDL
MODEL 9
REMARK VINA RESULT:      -6.8      3.098      7.272
REMARK  Name = 
REMARK  6 active torsions:
REMARK  status: ('A' for Active; 'I' for Inactive)
REMARK    1  A    between atoms: C_2  and  O_4
REMARK    2  A    between atoms: O_4  and  C_5
REMARK    3  A    between atoms: C_9  and  O_10
REMARK    4  A    between atoms: O_10  and  C_11
REMARK    5  A    between atoms: C_17  and  C_18
REMARK    6  A    between atoms: C_19  and  C_20
REMARK                            x       y       z     vdW  Elec       q    Type
REMARK                         _______ _______ _______ _____ _____    ______ ____
ROOT
ATOM      1  C   UNL     1     -32.536  -6.053  -3.926  0.00  0.00    +0.000 A 
ATOM      2  C   UNL     1     -31.340  -6.740  -3.799  0.00  0.00    +0.000 A 
ATOM      3  C   UNL     1     -30.492  -6.609  -2.713  0.00  0.00    +0.000 A 
ATOM      4  O   UNL     1     -29.922  -7.799  -2.246  0.00  0.00    +0.000 OA
ATOM      5  C   UNL     1     -30.844  -5.613  -1.809  0.00  0.00    +0.000 A 
ATOM      6  C   UNL     1     -31.673  -4.581  -2.227  0.00  0.00    +0.000 A 
ATOM      7  C   UNL     1     -32.528  -4.817  -3.298  0.00  0.00    +0.000 A 
ENDROOT
BRANCH   7   8
ATOM      8  C   UNL     1     -33.590  -3.879  -3.667  0.00  0.00    +0.000 C 
ATOM      9  C   UNL     1     -33.585  -3.269  -4.841  0.00  0.00    +0.000 C 
BRANCH   9  10
ATOM     10  C   UNL     1     -34.886  -2.962  -5.438  0.00  0.00    +0.000 A 
ATOM     11  C   UNL     1     -35.642  -1.886  -4.992  0.00  0.00    +0.000 A 
ATOM     12  C   UNL     1     -36.713  -1.491  -5.743  0.00  0.00    +0.000 A 
ATOM     13  O   UNL     1     -37.425  -0.358  -5.412  0.00  0.00    +0.000 OA
ATOM     14  C   UNL     1     -37.092  -2.218  -6.850  0.00  0.00    +0.000 A 
ATOM     15  C   UNL     1     -36.535  -3.471  -7.044  0.00  0.00    +0.000 A 
ATOM     16  O   UNL     1     -36.915  -4.254  -8.137  0.00  0.00    +0.000 OA
ATOM     17  C   UNL     1     -35.396  -3.845  -6.375  0.00  0.00    +0.000 A 
ENDBRANCH   9  10
ENDBRANCH   7   8
BRANCH   1  18
ATOM     18  O   UNL     1     -33.562  -6.427  -4.801  0.00  0.00    +0.000 OA
BRANCH  18  23
ATOM     19  C   UNL     1     -36.353  -8.681  -3.938  0.00  0.00    +0.000 C 
ATOM     20  C   UNL     1     -37.786  -7.997  -3.634  0.00  0.00    +0.000 C 
ATOM     21  C   UNL     1     -36.503  -8.088  -4.567  0.00  0.00    +0.000 C 
ATOM     22  C   UNL     1     -35.614  -6.881  -3.774  0.00  0.00    +0.000 C 
ATOM     23  C   UNL     1     -34.219  -7.688  -4.224  0.00  0.00    +0.000 C 
ATOM     24  C   UNL     1     -34.810  -8.097  -5.734  0.00  0.00    +0.000 C 
ATOM     25  C   UNL     1     -35.961  -7.250  -4.984  0.00  0.00    +0.000 C 
ATOM     26  N   UNL     1     -37.178  -7.417  -5.785  0.00  0.00    +0.000 NA
ATOM     27  C   UNL     1     -38.067  -6.448  -5.292  0.00  0.00    +0.000 C 
BRANCH  19  28
ATOM     28  O   UNL     1     -36.720  -9.596  -5.108  0.00  0.00    +0.000 OA
BRANCH  28  30
ATOM     29  C   UNL     1     -37.379 -11.593  -4.916  0.00  0.00    +0.000 C 
ATOM     30  C   UNL     1     -36.721 -10.915  -4.934  0.00  0.00    +0.000 C 
ATOM     31  O   UNL     1     -35.813 -11.362  -5.732  0.00  0.00    +0.000 OA
ENDBRANCH  28  30
ENDBRANCH  19  28
ENDBRANCH  18  23
ENDBRANCH   1  18
TORSDOF 6
ENDMDL
MODEL 10
REMARK VINA RESULT:      -6.8     23.107     25.889
REMARK  Name = 
REMARK  6 active torsions:
REMARK  status: ('A' for Active; 'I' for Inactive)
REMARK    1  A    between atoms: C_2  and  O_4
REMARK    2  A    between atoms: O_4  and  C_5
REMARK    3  A    between atoms: C_9  and  O_10
REMARK    4  A    between atoms: O_10  and  C_11
REMARK    5  A    between atoms: C_17  and  C_18
REMARK    6  A    between atoms: C_19  and  C_20
REMARK                            x       y       z     vdW  Elec       q    Type
REMARK                         _______ _______ _______ _____ _____    ______ ____
ROOT
ATOM      1  C   UNL     1     -22.775   1.755 -28.360  0.00  0.00    +0.000 A 
ATOM      2  C   UNL     1     -23.070   3.062 -28.013  0.00  0.00    +0.000 A 
ATOM      3  C   UNL     1     -23.468   4.026 -28.922  0.00  0.00    +0.000 A 
ATOM      4  O   UNL     1     -24.497   4.872 -28.493  0.00  0.00    +0.000 OA
ATOM      5  C   UNL     1     -23.408   3.637 -30.255  0.00  0.00    +0.000 A 
ATOM      6  C   UNL     1     -22.588   2.576 -30.616  0.00  0.00    +0.000 A 
ATOM      7  C   UNL     1     -22.277   1.627 -29.648  0.00  0.00    +0.000 A 
ENDROOT
BRANCH   7   8
ATOM      8  C   UNL     1     -21.612   0.366 -29.981  0.00  0.00    +0.000 C 
ATOM      9  C   UNL     1     -20.731   0.297 -30.965  0.00  0.00    +0.000 C 
BRANCH   9  10
ATOM     10  C   UNL     1     -19.637  -0.665 -30.815  0.00  0.00    +0.000 A 
ATOM     11  C   UNL     1     -19.092  -1.306 -31.918  0.00  0.00    +0.000 A 
ATOM     12  C   UNL     1     -17.920  -1.990 -31.758  0.00  0.00    +0.000 A 
ATOM     13  O   UNL     1     -17.274  -2.543 -32.842  0.00  0.00    +0.000 OA
ATOM     14  C   UNL     1     -17.362  -2.127 -30.506  0.00  0.00    +0.000 A 
ATOM     15  C   UNL     1     -18.121  -1.784 -29.399  0.00  0.00    +0.000 A 
ATOM     16  O   UNL     1     -17.604  -1.938 -28.110  0.00  0.00    +0.000 OA
ATOM     17  C   UNL     1     -19.245  -1.007 -29.532  0.00  0.00    +0.000 A 
ENDBRANCH   9  10
ENDBRANCH   7   8
BRANCH   1  18
ATOM     18  O   UNL     1     -22.731   0.694 -27.447  0.00  0.00    +0.000 OA
BRANCH  18  23
ATOM     19  C   UNL     1     -25.926  -0.999 -26.712  0.00  0.00    +0.000 C 
ATOM     20  C   UNL     1     -26.464  -2.064 -27.803  0.00  0.00    +0.000 C 
ATOM     21  C   UNL     1     -25.250  -1.510 -26.939  0.00  0.00    +0.000 C 
ATOM     22  C   UNL     1     -24.687  -0.410 -28.101  0.00  0.00    +0.000 C 
ATOM     23  C   UNL     1     -24.136   0.550 -26.846  0.00  0.00    +0.000 C 
ATOM     24  C   UNL     1     -23.631  -0.751 -25.925  0.00  0.00    +0.000 C 
ATOM     25  C   UNL     1     -24.242  -1.345 -27.295  0.00  0.00    +0.000 C 
ATOM     26  N   UNL     1     -24.392  -2.788 -27.084  0.00  0.00    +0.000 NA
ATOM     27  C   UNL     1     -24.634  -3.315 -28.363  0.00  0.00    +0.000 C 
BRANCH  19  28
ATOM     28  O   UNL     1     -25.817  -1.894 -25.475  0.00  0.00    +0.000 OA
BRANCH  28  30
ATOM     29  C   UNL     1     -27.567  -1.481 -24.367  0.00  0.00    +0.000 C 
ATOM     30  C   UNL     1     -26.654  -1.710 -24.457  0.00  0.00    +0.000 C 
ATOM     31  O   UNL     1     -26.499  -2.743 -23.702  0.00  0.00    +0.000 OA
ENDBRANCH  28  30
ENDBRANCH  19  28
ENDBRANCH  18  23
ENDBRANCH   1  18
TORSDOF 6
ENDMDL
