MODEL 1
REMARK VINA RESULT:      -8.9      0.000      0.000
REMARK  Name = 
REMARK  4 active torsions:
REMARK  status: ('A' for Active; 'I' for Inactive)
REMARK    1  A    between atoms: C_8  and  O_9
REMARK    2  A    between atoms: O_9  and  C_10
REMARK    3  A    between atoms: C_16  and  C_17
REMARK    4  A    between atoms: C_18  and  C_19
REMARK                            x       y       z     vdW  Elec       q    Type
REMARK                         _______ _______ _______ _____ _____    ______ ____
ROOT
ATOM      1  C   UNL     1     -24.136   8.524  -3.575  0.00  0.00    +0.000 A 
ATOM      2  C   UNL     1     -23.205   9.544  -3.412  0.00  0.00    +0.000 A 
ATOM      3  C   UNL     1     -22.425   9.642  -2.265  0.00  0.00    +0.000 A 
ATOM      4  O   UNL     1     -22.185  10.836  -1.612  0.00  0.00    +0.000 OA
ATOM      5  C   UNL     1     -22.215   8.441  -1.596  0.00  0.00    +0.000 A 
ATOM      6  C   UNL     1     -22.985   7.313  -1.860  0.00  0.00    +0.000 A 
ATOM      7  C   UNL     1     -24.086   7.441  -2.701  0.00  0.00    +0.000 A 
ENDROOT
BRANCH   7   8
ATOM      8  C   UNL     1     -25.400   6.872  -2.361  0.00  0.00    +0.000 C 
ATOM      9  C   UNL     1     -25.691   6.340  -1.201  0.00  0.00    +0.000 C 
BRANCH   9  10
ATOM     10  C   UNL     1     -26.030   4.946  -0.948  0.00  0.00    +0.000 A 
ATOM     11  C   UNL     1     -26.951   4.549   0.015  0.00  0.00    +0.000 A 
ATOM     12  C   UNL     1     -27.053   3.228   0.434  0.00  0.00    +0.000 A 
ATOM     13  O   UNL     1     -27.574   2.874   1.679  0.00  0.00    +0.000 OA
ATOM     14  C   UNL     1     -26.589   2.280  -0.470  0.00  0.00    +0.000 A 
ATOM     15  C   UNL     1     -25.510   2.609  -1.283  0.00  0.00    +0.000 A 
ATOM     16  O   UNL     1     -24.991   1.698  -2.209  0.00  0.00    +0.000 OA
ATOM     17  C   UNL     1     -25.133   3.946  -1.315  0.00  0.00    +0.000 A 
ENDBRANCH   9  10
ENDBRANCH   7   8
BRANCH   1  18
ATOM     18  O   UNL     1     -24.699   8.218  -4.820  0.00  0.00    +0.000 OA
BRANCH  18  26
ATOM     19  C   UNL     1     -28.140   7.193 -11.673  0.00  0.00    +0.000 C 
ATOM     20  C   UNL     1     -27.480   7.997 -10.727  0.00  0.00    +0.000 A 
ATOM     21  C   UNL     1     -26.596   7.553  -9.766  0.00  0.00    +0.000 A 
ATOM     22  C   UNL     1     -25.941   8.411  -8.897  0.00  0.00    +0.000 A 
ATOM     23  N   UNL     1     -25.468   7.944  -7.626  0.00  0.00    +0.000 N 
ATOM     24  C   UNL     1     -26.364   8.020  -6.467  0.00  0.00    +0.000 C 
ATOM     25  C   UNL     1     -26.019   9.483  -6.240  0.00  0.00    +0.000 C 
ATOM     26  C   UNL     1     -24.399   9.281  -5.916  0.00  0.00    +0.000 C 
ATOM     27  C   UNL     1     -24.187   8.115  -7.077  0.00  0.00    +0.000 C 
ATOM     28  N   UNL     1     -26.245   9.725  -9.025  0.00  0.00    +0.000 NA
ATOM     29  C   UNL     1     -27.103  10.191  -9.956  0.00  0.00    +0.000 A 
ATOM     30 CL   UNL     1     -27.790  11.802  -9.759  0.00  0.00    +0.000 Cl
ATOM     31  N   UNL     1     -27.774   9.317 -10.707  0.00  0.00    +0.000 NA
ENDBRANCH  18  26
ENDBRANCH   1  18
TORSDOF 4
ENDMDL
MODEL 2
REMARK VINA RESULT:      -8.0     15.892     17.939
REMARK  Name = 
REMARK  4 active torsions:
REMARK  status: ('A' for Active; 'I' for Inactive)
REMARK    1  A    between atoms: C_8  and  O_9
REMARK    2  A    between atoms: O_9  and  C_10
REMARK    3  A    between atoms: C_16  and  C_17
REMARK    4  A    between atoms: C_18  and  C_19
REMARK                            x       y       z     vdW  Elec       q    Type
REMARK                         _______ _______ _______ _____ _____    ______ ____
ROOT
ATOM      1  C   UNL     1     -17.005  -0.922   6.455  0.00  0.00    +0.000 A 
ATOM      2  C   UNL     1     -15.722  -0.893   5.919  0.00  0.00    +0.000 A 
ATOM      3  C   UNL     1     -15.052   0.305   5.696  0.00  0.00    +0.000 A 
ATOM      4  O   UNL     1     -14.330   0.566   4.547  0.00  0.00    +0.000 OA
ATOM      5  C   UNL     1     -15.455   1.360   6.508  0.00  0.00    +0.000 A 
ATOM      6  C   UNL     1     -16.639   1.311   7.236  0.00  0.00    +0.000 A 
ATOM      7  C   UNL     1     -17.507   0.246   7.023  0.00  0.00    +0.000 A 
ENDROOT
BRANCH   7   8
ATOM      8  C   UNL     1     -18.953   0.442   6.832  0.00  0.00    +0.000 C 
ATOM      9  C   UNL     1     -19.853   0.197   7.750  0.00  0.00    +0.000 C 
BRANCH   9  10
ATOM     10  C   UNL     1     -20.898  -0.817   7.689  0.00  0.00    +0.000 A 
ATOM     11  C   UNL     1     -21.022  -1.839   8.624  0.00  0.00    +0.000 A 
ATOM     12  C   UNL     1     -21.836  -2.944   8.401  0.00  0.00    +0.000 A 
ATOM     13  O   UNL     1     -21.627  -4.169   9.036  0.00  0.00    +0.000 OA
ATOM     14  C   UNL     1     -22.867  -2.749   7.491  0.00  0.00    +0.000 A 
ATOM     15  C   UNL     1     -22.656  -1.888   6.421  0.00  0.00    +0.000 A 
ATOM     16  O   UNL     1     -23.651  -1.653   5.466  0.00  0.00    +0.000 OA
ATOM     17  C   UNL     1     -21.520  -1.088   6.473  0.00  0.00    +0.000 A 
ENDBRANCH   9  10
ENDBRANCH   7   8
BRANCH   1  18
ATOM     18  O   UNL     1     -17.571  -2.092   6.976  0.00  0.00    +0.000 OA
BRANCH  18  26
ATOM     19  C   UNL     1     -21.087  -8.946   7.695  0.00  0.00    +0.000 C 
ATOM     20  C   UNL     1     -20.022  -8.140   7.252  0.00  0.00    +0.000 A 
ATOM     21  C   UNL     1     -19.621  -6.948   7.817  0.00  0.00    +0.000 A 
ATOM     22  C   UNL     1     -18.528  -6.232   7.358  0.00  0.00    +0.000 A 
ATOM     23  N   UNL     1     -18.437  -4.817   7.578  0.00  0.00    +0.000 N 
ATOM     24  C   UNL     1     -19.009  -3.908   6.579  0.00  0.00    +0.000 C 
ATOM     25  C   UNL     1     -17.769  -4.016   5.705  0.00  0.00    +0.000 C 
ATOM     26  C   UNL     1     -16.683  -3.354   6.777  0.00  0.00    +0.000 C 
ATOM     27  C   UNL     1     -17.346  -4.104   8.101  0.00  0.00    +0.000 C 
ATOM     28  N   UNL     1     -17.886  -6.757   6.287  0.00  0.00    +0.000 NA
ATOM     29  C   UNL     1     -18.252  -7.922   5.713  0.00  0.00    +0.000 A 
ATOM     30 CL   UNL     1     -17.684  -8.291   4.086  0.00  0.00    +0.000 Cl
ATOM     31  N   UNL     1     -19.362  -8.526   6.136  0.00  0.00    +0.000 NA
ENDBRANCH  18  26
ENDBRANCH   1  18
TORSDOF 4
ENDMDL
MODEL 3
REMARK VINA RESULT:      -7.9      2.341      3.485
REMARK  Name = 
REMARK  4 active torsions:
REMARK  status: ('A' for Active; 'I' for Inactive)
REMARK    1  A    between atoms: C_8  and  O_9
REMARK    2  A    between atoms: O_9  and  C_10
REMARK    3  A    between atoms: C_16  and  C_17
REMARK    4  A    between atoms: C_18  and  C_19
REMARK                            x       y       z     vdW  Elec       q    Type
REMARK                         _______ _______ _______ _____ _____    ______ ____
ROOT
ATOM      1  C   UNL     1     -24.777  10.032  -5.585  0.00  0.00    +0.000 A 
ATOM      2  C   UNL     1     -24.801  11.400  -5.340  0.00  0.00    +0.000 A 
ATOM      3  C   UNL     1     -24.068  11.969  -4.304  0.00  0.00    +0.000 A 
ATOM      4  O   UNL     1     -24.575  12.941  -3.463  0.00  0.00    +0.000 OA
ATOM      5  C   UNL     1     -22.944  11.247  -3.919  0.00  0.00    +0.000 A 
ATOM      6  C   UNL     1     -22.758   9.923  -4.303  0.00  0.00    +0.000 A 
ATOM      7  C   UNL     1     -23.796   9.269  -4.956  0.00  0.00    +0.000 A 
ENDROOT
BRANCH   7   8
ATOM      8  C   UNL     1     -24.231   7.916  -4.574  0.00  0.00    +0.000 C 
ATOM      9  C   UNL     1     -24.866   7.635  -3.464  0.00  0.00    +0.000 C 
BRANCH   9  10
ATOM     10  C   UNL     1     -24.374   6.808  -2.370  0.00  0.00    +0.000 A 
ATOM     11  C   UNL     1     -23.076   6.889  -1.878  0.00  0.00    +0.000 A 
ATOM     12  C   UNL     1     -22.545   5.916  -1.040  0.00  0.00    +0.000 A 
ATOM     13  O   UNL     1     -21.173   5.692  -0.925  0.00  0.00    +0.000 OA
ATOM     14  C   UNL     1     -23.478   5.169  -0.331  0.00  0.00    +0.000 A 
ATOM     15  C   UNL     1     -24.704   4.897  -0.926  0.00  0.00    +0.000 A 
ATOM     16  O   UNL     1     -25.683   4.146  -0.269  0.00  0.00    +0.000 OA
ATOM     17  C   UNL     1     -25.009   5.602  -2.085  0.00  0.00    +0.000 A 
ENDBRANCH   9  10
ENDBRANCH   7   8
BRANCH   1  18
ATOM     18  O   UNL     1     -25.239   9.478  -6.785  0.00  0.00    +0.000 OA
BRANCH  18  26
ATOM     19  C   UNL     1     -28.798   5.474 -12.367  0.00  0.00    +0.000 C 
ATOM     20  C   UNL     1     -28.815   6.362 -11.276  0.00  0.00    +0.000 A 
ATOM     21  C   UNL     1     -27.774   7.175 -10.880  0.00  0.00    +0.000 A 
ATOM     22  C   UNL     1     -27.880   8.065  -9.823  0.00  0.00    +0.000 A 
ATOM     23  N   UNL     1     -26.712   8.494  -9.109  0.00  0.00    +0.000 N 
ATOM     24  C   UNL     1     -26.267   7.714  -7.949  0.00  0.00    +0.000 C 
ATOM     25  C   UNL     1     -27.274   8.405  -7.042  0.00  0.00    +0.000 C 
ATOM     26  C   UNL     1     -26.669   9.950  -7.176  0.00  0.00    +0.000 C 
ATOM     27  C   UNL     1     -26.339   9.811  -8.796  0.00  0.00    +0.000 C 
ATOM     28  N   UNL     1     -29.068   8.069  -9.172  0.00  0.00    +0.000 NA
ATOM     29  C   UNL     1     -30.105   7.288  -9.536  0.00  0.00    +0.000 A 
ATOM     30 CL   UNL     1     -31.414   7.010  -8.389  0.00  0.00    +0.000 Cl
ATOM     31  N   UNL     1     -29.924   6.386 -10.501  0.00  0.00    +0.000 NA
ENDBRANCH  18  26
ENDBRANCH   1  18
TORSDOF 4
ENDMDL
MODEL 4
REMARK VINA RESULT:      -7.6     15.514     18.988
REMARK  Name = 
REMARK  4 active torsions:
REMARK  status: ('A' for Active; 'I' for Inactive)
REMARK    1  A    between atoms: C_8  and  O_9
REMARK    2  A    between atoms: O_9  and  C_10
REMARK    3  A    between atoms: C_16  and  C_17
REMARK    4  A    between atoms: C_18  and  C_19
REMARK                            x       y       z     vdW  Elec       q    Type
REMARK                         _______ _______ _______ _____ _____    ______ ____
ROOT
ATOM      1  C   UNL     1     -37.561  -5.097  -8.328  0.00  0.00    +0.000 A 
ATOM      2  C   UNL     1     -38.532  -4.108  -8.447  0.00  0.00    +0.000 A 
ATOM      3  C   UNL     1     -39.602  -4.239  -9.327  0.00  0.00    +0.000 A 
ATOM      4  O   UNL     1     -40.050  -3.209 -10.132  0.00  0.00    +0.000 OA
ATOM      5  C   UNL     1     -39.950  -5.550  -9.633  0.00  0.00    +0.000 A 
ATOM      6  C   UNL     1     -39.103  -6.616  -9.352  0.00  0.00    +0.000 A 
ATOM      7  C   UNL     1     -37.817  -6.342  -8.896  0.00  0.00    +0.000 A 
ENDROOT
BRANCH   7   8
ATOM      8  C   UNL     1     -36.631  -7.012  -9.452  0.00  0.00    +0.000 C 
ATOM      9  C   UNL     1     -36.259  -6.924 -10.704  0.00  0.00    +0.000 C 
BRANCH   9  10
ATOM     10  C   UNL     1     -36.211  -8.012 -11.672  0.00  0.00    +0.000 A 
ATOM     11  C   UNL     1     -36.388  -9.347 -11.327  0.00  0.00    +0.000 A 
ATOM     12  C   UNL     1     -36.065 -10.381 -12.197  0.00  0.00    +0.000 A 
ATOM     13  O   UNL     1     -35.763 -11.669 -11.753  0.00  0.00    +0.000 OA
ATOM     14  C   UNL     1     -36.050 -10.041 -13.544  0.00  0.00    +0.000 A 
ATOM     15  C   UNL     1     -35.652  -8.759 -13.903  0.00  0.00    +0.000 A 
ATOM     16  O   UNL     1     -35.609  -8.356 -15.241  0.00  0.00    +0.000 OA
ATOM     17  C   UNL     1     -35.538  -7.828 -12.877  0.00  0.00    +0.000 A 
ENDBRANCH   9  10
ENDBRANCH   7   8
BRANCH   1  18
ATOM     18  O   UNL     1     -36.668  -5.141  -7.251  0.00  0.00    +0.000 OA
BRANCH  18  26
ATOM     19  C   UNL     1     -31.541  -5.054  -1.458  0.00  0.00    +0.000 C 
ATOM     20  C   UNL     1     -31.931  -4.736  -2.771  0.00  0.00    +0.000 A 
ATOM     21  C   UNL     1     -33.227  -4.565  -3.210  0.00  0.00    +0.000 A 
ATOM     22  C   UNL     1     -33.535  -4.202  -4.511  0.00  0.00    +0.000 A 
ATOM     23  N   UNL     1     -34.812  -4.529  -5.079  0.00  0.00    +0.000 N 
ATOM     24  C   UNL     1     -34.968  -5.812  -5.773  0.00  0.00    +0.000 C 
ATOM     25  C   UNL     1     -34.364  -5.246  -7.049  0.00  0.00    +0.000 C 
ATOM     26  C   UNL     1     -35.523  -4.091  -7.350  0.00  0.00    +0.000 C 
ATOM     27  C   UNL     1     -35.691  -3.667  -5.755  0.00  0.00    +0.000 C 
ATOM     28  N   UNL     1     -32.480  -4.053  -5.348  0.00  0.00    +0.000 NA
ATOM     29  C   UNL     1     -31.202  -4.211  -4.949  0.00  0.00    +0.000 A 
ATOM     30 CL   UNL     1     -29.949  -4.460  -6.163  0.00  0.00    +0.000 Cl
ATOM     31  N   UNL     1     -30.963  -4.647  -3.712  0.00  0.00    +0.000 NA
ENDBRANCH  18  26
ENDBRANCH   1  18
TORSDOF 4
ENDMDL
MODEL 5
REMARK VINA RESULT:      -7.6      4.182      8.958
REMARK  Name = 
REMARK  4 active torsions:
REMARK  status: ('A' for Active; 'I' for Inactive)
REMARK    1  A    between atoms: C_8  and  O_9
REMARK    2  A    between atoms: O_9  and  C_10
REMARK    3  A    between atoms: C_16  and  C_17
REMARK    4  A    between atoms: C_18  and  C_19
REMARK                            x       y       z     vdW  Elec       q    Type
REMARK                         _______ _______ _______ _____ _____    ______ ____
ROOT
ATOM      1  C   UNL     1     -25.601   9.940  -6.492  0.00  0.00    +0.000 A 
ATOM      2  C   UNL     1     -25.386  11.299  -6.289  0.00  0.00    +0.000 A 
ATOM      3  C   UNL     1     -26.012  12.261  -7.074  0.00  0.00    +0.000 A 
ATOM      4  O   UNL     1     -25.359  13.372  -7.573  0.00  0.00    +0.000 OA
ATOM      5  C   UNL     1     -27.215  11.859  -7.644  0.00  0.00    +0.000 A 
ATOM      6  C   UNL     1     -27.587  10.520  -7.698  0.00  0.00    +0.000 A 
ATOM      7  C   UNL     1     -26.661   9.557  -7.309  0.00  0.00    +0.000 A 
ENDROOT
BRANCH   7   8
ATOM      8  C   UNL     1     -26.405   8.350  -8.111  0.00  0.00    +0.000 C 
ATOM      9  C   UNL     1     -26.330   8.340  -9.418  0.00  0.00    +0.000 C 
BRANCH   9  10
ATOM     10  C   UNL     1     -27.237   7.659 -10.333  0.00  0.00    +0.000 A 
ATOM     11  C   UNL     1     -27.943   8.315 -11.334  0.00  0.00    +0.000 A 
ATOM     12  C   UNL     1     -29.001   7.711 -12.005  0.00  0.00    +0.000 A 
ATOM     13  O   UNL     1     -30.011   8.445 -12.628  0.00  0.00    +0.000 OA
ATOM     14  C   UNL     1     -28.990   6.322 -12.002  0.00  0.00    +0.000 A 
ATOM     15  C   UNL     1     -28.482   5.662 -10.889  0.00  0.00    +0.000 A 
ATOM     16  O   UNL     1     -28.449   4.266 -10.821  0.00  0.00    +0.000 OA
ATOM     17  C   UNL     1     -27.790   6.435  -9.964  0.00  0.00    +0.000 A 
ENDBRANCH   9  10
ENDBRANCH   7   8
BRANCH   1  18
ATOM     18  O   UNL     1     -25.245   8.976  -5.540  0.00  0.00    +0.000 OA
BRANCH  18  26
ATOM     19  C   UNL     1     -23.860   3.798   0.038  0.00  0.00    +0.000 C 
ATOM     20  C   UNL     1     -23.957   5.122  -0.426  0.00  0.00    +0.000 A 
ATOM     21  C   UNL     1     -24.743   5.555  -1.473  0.00  0.00    +0.000 A 
ATOM     22  C   UNL     1     -24.828   6.888  -1.844  0.00  0.00    +0.000 A 
ATOM     23  N   UNL     1     -25.196   7.252  -3.182  0.00  0.00    +0.000 N 
ATOM     24  C   UNL     1     -24.140   7.404  -4.188  0.00  0.00    +0.000 C 
ATOM     25  C   UNL     1     -23.830   8.815  -3.716  0.00  0.00    +0.000 C 
ATOM     26  C   UNL     1     -25.304   9.498  -4.076  0.00  0.00    +0.000 C 
ATOM     27  C   UNL     1     -26.176   8.178  -3.575  0.00  0.00    +0.000 C 
ATOM     28  N   UNL     1     -24.061   7.748  -1.132  0.00  0.00    +0.000 NA
ATOM     29  C   UNL     1     -23.284   7.356  -0.103  0.00  0.00    +0.000 A 
ATOM     30 CL   UNL     1     -21.994   8.421   0.452  0.00  0.00    +0.000 Cl
ATOM     31  N   UNL     1     -23.168   6.054   0.157  0.00  0.00    +0.000 NA
ENDBRANCH  18  26
ENDBRANCH   1  18
TORSDOF 4
ENDMDL
MODEL 6
REMARK VINA RESULT:      -7.4     16.783     19.039
REMARK  Name = 
REMARK  4 active torsions:
REMARK  status: ('A' for Active; 'I' for Inactive)
REMARK    1  A    between atoms: C_8  and  O_9
REMARK    2  A    between atoms: O_9  and  C_10
REMARK    3  A    between atoms: C_16  and  C_17
REMARK    4  A    between atoms: C_18  and  C_19
REMARK                            x       y       z     vdW  Elec       q    Type
REMARK                         _______ _______ _______ _____ _____    ______ ____
ROOT
ATOM      1  C   UNL     1     -19.399  -2.357   8.735  0.00  0.00    +0.000 A 
ATOM      2  C   UNL     1     -19.750  -1.043   9.025  0.00  0.00    +0.000 A 
ATOM      3  C   UNL     1     -19.279   0.023   8.266  0.00  0.00    +0.000 A 
ATOM      4  O   UNL     1     -18.819   1.202   8.820  0.00  0.00    +0.000 OA
ATOM      5  C   UNL     1     -18.940  -0.298   6.956  0.00  0.00    +0.000 A 
ATOM      6  C   UNL     1     -18.772  -1.617   6.546  0.00  0.00    +0.000 A 
ATOM      7  C   UNL     1     -18.793  -2.620   7.509  0.00  0.00    +0.000 A 
ENDROOT
BRANCH   7   8
ATOM      8  C   UNL     1     -17.782  -3.688   7.548  0.00  0.00    +0.000 C 
ATOM      9  C   UNL     1     -17.003  -3.998   6.543  0.00  0.00    +0.000 C 
BRANCH   9  10
ATOM     10  C   UNL     1     -16.996  -5.256   5.808  0.00  0.00    +0.000 A 
ATOM     11  C   UNL     1     -16.127  -5.517   4.755  0.00  0.00    +0.000 A 
ATOM     12  C   UNL     1     -16.317  -6.592   3.894  0.00  0.00    +0.000 A 
ATOM     13  O   UNL     1     -15.803  -6.615   2.597  0.00  0.00    +0.000 OA
ATOM     14  C   UNL     1     -17.067  -7.642   4.411  0.00  0.00    +0.000 A 
ATOM     15  C   UNL     1     -18.092  -7.351   5.303  0.00  0.00    +0.000 A 
ATOM     16  O   UNL     1     -18.887  -8.360   5.854  0.00  0.00    +0.000 OA
ATOM     17  C   UNL     1     -18.135  -6.058   5.810  0.00  0.00    +0.000 A 
ENDBRANCH   9  10
ENDBRANCH   7   8
BRANCH   1  18
ATOM     18  O   UNL     1     -20.091  -3.451   9.269  0.00  0.00    +0.000 OA
BRANCH  18  26
ATOM     19  C   UNL     1     -26.215  -7.793   7.401  0.00  0.00    +0.000 C 
ATOM     20  C   UNL     1     -25.556  -6.876   8.240  0.00  0.00    +0.000 A 
ATOM     21  C   UNL     1     -24.564  -5.999   7.857  0.00  0.00    +0.000 A 
ATOM     22  C   UNL     1     -23.994  -5.086   8.729  0.00  0.00    +0.000 A 
ATOM     23  N   UNL     1     -22.673  -4.577   8.495  0.00  0.00    +0.000 N 
ATOM     24  C   UNL     1     -21.527  -5.298   9.057  0.00  0.00    +0.000 C 
ATOM     25  C   UNL     1     -21.718  -4.636  10.413  0.00  0.00    +0.000 C 
ATOM     26  C   UNL     1     -21.445  -3.066   9.932  0.00  0.00    +0.000 C 
ATOM     27  C   UNL     1     -22.264  -3.233   8.499  0.00  0.00    +0.000 C 
ATOM     28  N   UNL     1     -24.449  -5.125  10.005  0.00  0.00    +0.000 NA
ATOM     29  C   UNL     1     -25.419  -5.969  10.410  0.00  0.00    +0.000 A 
ATOM     30 CL   UNL     1     -25.620  -6.283  12.133  0.00  0.00    +0.000 Cl
ATOM     31  N   UNL     1     -25.872  -6.888   9.556  0.00  0.00    +0.000 NA
ENDBRANCH  18  26
ENDBRANCH   1  18
TORSDOF 4
ENDMDL
MODEL 7
REMARK VINA RESULT:      -7.4      2.880      6.668
REMARK  Name = 
REMARK  4 active torsions:
REMARK  status: ('A' for Active; 'I' for Inactive)
REMARK    1  A    between atoms: C_8  and  O_9
REMARK    2  A    between atoms: O_9  and  C_10
REMARK    3  A    between atoms: C_16  and  C_17
REMARK    4  A    between atoms: C_18  and  C_19
REMARK                            x       y       z     vdW  Elec       q    Type
REMARK                         _______ _______ _______ _____ _____    ______ ____
ROOT
ATOM      1  C   UNL     1     -23.815   8.159  -3.667  0.00  0.00    +0.000 A 
ATOM      2  C   UNL     1     -23.751   6.959  -2.966  0.00  0.00    +0.000 A 
ATOM      3  C   UNL     1     -22.925   6.805  -1.858  0.00  0.00    +0.000 A 
ATOM      4  O   UNL     1     -22.149   5.681  -1.643  0.00  0.00    +0.000 OA
ATOM      5  C   UNL     1     -22.628   7.983  -1.182  0.00  0.00    +0.000 A 
ATOM      6  C   UNL     1     -22.860   9.231  -1.750  0.00  0.00    +0.000 A 
ATOM      7  C   UNL     1     -23.253   9.291  -3.083  0.00  0.00    +0.000 A 
ENDROOT
BRANCH   7   8
ATOM      8  C   UNL     1     -22.635  10.224  -4.039  0.00  0.00    +0.000 C 
ATOM      9  C   UNL     1     -22.119  11.380  -3.707  0.00  0.00    +0.000 C 
BRANCH   9  10
ATOM     10  C   UNL     1     -22.597  12.693  -4.121  0.00  0.00    +0.000 A 
ATOM     11  C   UNL     1     -23.819  12.893  -4.753  0.00  0.00    +0.000 A 
ATOM     12  C   UNL     1     -24.132  14.091  -5.385  0.00  0.00    +0.000 A 
ATOM     13  O   UNL     1     -25.078  14.175  -6.408  0.00  0.00    +0.000 OA
ATOM     14  C   UNL     1     -23.427  15.201  -4.938  0.00  0.00    +0.000 A 
ATOM     15  C   UNL     1     -22.115  15.029  -4.512  0.00  0.00    +0.000 A 
ATOM     16  O   UNL     1     -21.349  16.107  -4.056  0.00  0.00    +0.000 OA
ATOM     17  C   UNL     1     -21.682  13.722  -4.326  0.00  0.00    +0.000 A 
ENDBRANCH   9  10
ENDBRANCH   7   8
BRANCH   1  18
ATOM     18  O   UNL     1     -24.846   8.442  -4.570  0.00  0.00    +0.000 OA
BRANCH  18  26
ATOM     19  C   UNL     1     -28.272   6.632 -11.266  0.00  0.00    +0.000 C 
ATOM     20  C   UNL     1     -27.517   7.499 -10.456  0.00  0.00    +0.000 A 
ATOM     21  C   UNL     1     -26.728   7.125  -9.389  0.00  0.00    +0.000 A 
ATOM     22  C   UNL     1     -25.969   8.031  -8.665  0.00  0.00    +0.000 A 
ATOM     23  N   UNL     1     -25.595   7.752  -7.309  0.00  0.00    +0.000 N 
ATOM     24  C   UNL     1     -26.491   8.173  -6.227  0.00  0.00    +0.000 C 
ATOM     25  C   UNL     1     -25.937   9.589  -6.260  0.00  0.00    +0.000 C 
ATOM     26  C   UNL     1     -24.372   9.224  -5.829  0.00  0.00    +0.000 C 
ATOM     27  C   UNL     1     -24.313   7.841  -6.742  0.00  0.00    +0.000 C 
ATOM     28  N   UNL     1     -26.072   9.326  -9.049  0.00  0.00    +0.000 NA
ATOM     29  C   UNL     1     -26.833   9.723 -10.089  0.00  0.00    +0.000 A 
ATOM     30 CL   UNL     1     -27.277  11.423 -10.227  0.00  0.00    +0.000 Cl
ATOM     31  N   UNL     1     -27.612   8.827 -10.695  0.00  0.00    +0.000 NA
ENDBRANCH  18  26
ENDBRANCH   1  18
TORSDOF 4
ENDMDL
MODEL 8
REMARK VINA RESULT:      -7.3     16.712     18.852
REMARK  Name = 
REMARK  4 active torsions:
REMARK  status: ('A' for Active; 'I' for Inactive)
REMARK    1  A    between atoms: C_8  and  O_9
REMARK    2  A    between atoms: O_9  and  C_10
REMARK    3  A    between atoms: C_16  and  C_17
REMARK    4  A    between atoms: C_18  and  C_19
REMARK                            x       y       z     vdW  Elec       q    Type
REMARK                         _______ _______ _______ _____ _____    ______ ____
ROOT
ATOM      1  C   UNL     1     -21.798  -4.751   9.061  0.00  0.00    +0.000 A 
ATOM      2  C   UNL     1     -21.330  -5.976   9.525  0.00  0.00    +0.000 A 
ATOM      3  C   UNL     1     -20.069  -6.105  10.097  0.00  0.00    +0.000 A 
ATOM      4  O   UNL     1     -19.211  -7.151   9.811  0.00  0.00    +0.000 OA
ATOM      5  C   UNL     1     -19.566  -4.944  10.673  0.00  0.00    +0.000 A 
ATOM      6  C   UNL     1     -20.122  -3.697  10.407  0.00  0.00    +0.000 A 
ATOM      7  C   UNL     1     -21.103  -3.601   9.426  0.00  0.00    +0.000 A 
ENDROOT
BRANCH   7   8
ATOM      8  C   UNL     1     -21.074  -2.555   8.392  0.00  0.00    +0.000 C 
ATOM      9  C   UNL     1     -20.140  -2.448   7.482  0.00  0.00    +0.000 C 
BRANCH   9  10
ATOM     10  C   UNL     1     -19.192  -1.351   7.337  0.00  0.00    +0.000 A 
ATOM     11  C   UNL     1     -17.973  -1.479   6.681  0.00  0.00    +0.000 A 
ATOM     12  C   UNL     1     -16.972  -0.520   6.795  0.00  0.00    +0.000 A 
ATOM     13  O   UNL     1     -15.625  -0.814   6.584  0.00  0.00    +0.000 OA
ATOM     14  C   UNL     1     -17.406   0.752   7.146  0.00  0.00    +0.000 A 
ATOM     15  C   UNL     1     -18.501   0.872   7.993  0.00  0.00    +0.000 A 
ATOM     16  O   UNL     1     -18.983   2.123   8.390  0.00  0.00    +0.000 OA
ATOM     17  C   UNL     1     -19.242  -0.281   8.228  0.00  0.00    +0.000 A 
ENDBRANCH   9  10
ENDBRANCH   7   8
BRANCH   1  18
ATOM     18  O   UNL     1     -23.150  -4.527   8.777  0.00  0.00    +0.000 OA
BRANCH  18  26
ATOM     19  C   UNL     1     -30.676  -3.925   7.088  0.00  0.00    +0.000 C 
ATOM     20  C   UNL     1     -29.577  -4.629   7.611  0.00  0.00    +0.000 A 
ATOM     21  C   UNL     1     -28.429  -4.066   8.129  0.00  0.00    +0.000 A 
ATOM     22  C   UNL     1     -27.405  -4.823   8.676  0.00  0.00    +0.000 A 
ATOM     23  N   UNL     1     -26.064  -4.315   8.719  0.00  0.00    +0.000 N 
ATOM     24  C   UNL     1     -25.174  -4.573   7.582  0.00  0.00    +0.000 C 
ATOM     25  C   UNL     1     -24.837  -5.961   8.103  0.00  0.00    +0.000 C 
ATOM     26  C   UNL     1     -24.111  -5.495   9.526  0.00  0.00    +0.000 C 
ATOM     27  C   UNL     1     -25.201  -4.280   9.826  0.00  0.00    +0.000 C 
ATOM     28  N   UNL     1     -27.582  -6.165   8.644  0.00  0.00    +0.000 NA
ATOM     29  C   UNL     1     -28.693  -6.746   8.147  0.00  0.00    +0.000 A 
ATOM     30 CL   UNL     1     -28.649  -8.455   7.720  0.00  0.00    +0.000 Cl
ATOM     31  N   UNL     1     -29.608  -5.981   7.553  0.00  0.00    +0.000 NA
ENDBRANCH  18  26
ENDBRANCH   1  18
TORSDOF 4
ENDMDL
MODEL 9
REMARK VINA RESULT:      -7.2      4.926      8.923
REMARK  Name = 
REMARK  4 active torsions:
REMARK  status: ('A' for Active; 'I' for Inactive)
REMARK    1  A    between atoms: C_8  and  O_9
REMARK    2  A    between atoms: O_9  and  C_10
REMARK    3  A    between atoms: C_16  and  C_17
REMARK    4  A    between atoms: C_18  and  C_19
REMARK                            x       y       z     vdW  Elec       q    Type
REMARK                         _______ _______ _______ _____ _____    ______ ____
ROOT
ATOM      1  C   UNL     1     -28.090   7.954  -9.632  0.00  0.00    +0.000 A 
ATOM      2  C   UNL     1     -27.596   7.133 -10.640  0.00  0.00    +0.000 A 
ATOM      3  C   UNL     1     -28.318   6.895 -11.805  0.00  0.00    +0.000 A 
ATOM      4  O   UNL     1     -28.435   5.643 -12.380  0.00  0.00    +0.000 OA
ATOM      5  C   UNL     1     -29.220   7.894 -12.149  0.00  0.00    +0.000 A 
ATOM      6  C   UNL     1     -29.606   8.875 -11.241  0.00  0.00    +0.000 A 
ATOM      7  C   UNL     1     -29.192   8.756  -9.918  0.00  0.00    +0.000 A 
ENDROOT
BRANCH   7   8
ATOM      8  C   UNL     1     -30.118   8.942  -8.790  0.00  0.00    +0.000 C 
ATOM      9  C   UNL     1     -30.577   7.966  -8.049  0.00  0.00    +0.000 C 
BRANCH   9  10
ATOM     10  C   UNL     1     -31.966   7.537  -7.944  0.00  0.00    +0.000 A 
ATOM     11  C   UNL     1     -32.615   7.349  -6.730  0.00  0.00    +0.000 A 
ATOM     12  C   UNL     1     -33.830   6.679  -6.641  0.00  0.00    +0.000 A 
ATOM     13  O   UNL     1     -34.258   6.053  -5.470  0.00  0.00    +0.000 OA
ATOM     14  C   UNL     1     -34.587   6.665  -7.806  0.00  0.00    +0.000 A 
ATOM     15  C   UNL     1     -33.926   6.627  -9.029  0.00  0.00    +0.000 A 
ATOM     16  O   UNL     1     -34.629   6.604 -10.237  0.00  0.00    +0.000 OA
ATOM     17  C   UNL     1     -32.556   6.860  -9.009  0.00  0.00    +0.000 A 
ENDBRANCH   9  10
ENDBRANCH   7   8
BRANCH   1  18
ATOM     18  O   UNL     1     -27.275   8.458  -8.612  0.00  0.00    +0.000 OA
BRANCH  18  26
ATOM     19  C   UNL     1     -22.442  10.919  -3.095  0.00  0.00    +0.000 C 
ATOM     20  C   UNL     1     -23.130   9.897  -3.773  0.00  0.00    +0.000 A 
ATOM     21  C   UNL     1     -23.551   9.939  -5.085  0.00  0.00    +0.000 A 
ATOM     22  C   UNL     1     -24.180   8.872  -5.705  0.00  0.00    +0.000 A 
ATOM     23  N   UNL     1     -25.049   9.085  -6.827  0.00  0.00    +0.000 N 
ATOM     24  C   UNL     1     -26.474   9.328  -6.581  0.00  0.00    +0.000 C 
ATOM     25  C   UNL     1     -26.750   7.838  -6.444  0.00  0.00    +0.000 C 
ATOM     26  C   UNL     1     -26.327   7.392  -7.990  0.00  0.00    +0.000 C 
ATOM     27  C   UNL     1     -25.025   8.418  -8.062  0.00  0.00    +0.000 C 
ATOM     28  N   UNL     1     -24.389   7.780  -4.930  0.00  0.00    +0.000 NA
ATOM     29  C   UNL     1     -23.987   7.707  -3.645  0.00  0.00    +0.000 A 
ATOM     30 CL   UNL     1     -24.692   6.479  -2.595  0.00  0.00    +0.000 Cl
ATOM     31  N   UNL     1     -23.468   8.791  -3.070  0.00  0.00    +0.000 NA
ENDBRANCH  18  26
ENDBRANCH   1  18
TORSDOF 4
ENDMDL
MODEL 10
REMARK VINA RESULT:      -7.0     15.222     17.827
REMARK  Name = 
REMARK  4 active torsions:
REMARK  status: ('A' for Active; 'I' for Inactive)
REMARK    1  A    between atoms: C_8  and  O_9
REMARK    2  A    between atoms: O_9  and  C_10
REMARK    3  A    between atoms: C_16  and  C_17
REMARK    4  A    between atoms: C_18  and  C_19
REMARK                            x       y       z     vdW  Elec       q    Type
REMARK                         _______ _______ _______ _____ _____    ______ ____
ROOT
ATOM      1  C   UNL     1     -36.913  -5.271  -6.945  0.00  0.00    +0.000 A 
ATOM      2  C   UNL     1     -37.886  -4.366  -7.356  0.00  0.00    +0.000 A 
ATOM      3  C   UNL     1     -37.847  -3.030  -6.971  0.00  0.00    +0.000 A 
ATOM      4  O   UNL     1     -38.963  -2.329  -6.556  0.00  0.00    +0.000 OA
ATOM      5  C   UNL     1     -36.580  -2.547  -6.664  0.00  0.00    +0.000 A 
ATOM      6  C   UNL     1     -35.506  -3.401  -6.439  0.00  0.00    +0.000 A 
ATOM      7  C   UNL     1     -35.748  -4.769  -6.371  0.00  0.00    +0.000 A 
ENDROOT
BRANCH   7   8
ATOM      8  C   UNL     1     -35.185  -5.611  -5.303  0.00  0.00    +0.000 C 
ATOM      9  C   UNL     1     -34.783  -5.153  -4.145  0.00  0.00    +0.000 C 
BRANCH   9  10
ATOM     10  C   UNL     1     -33.418  -5.167  -3.635  0.00  0.00    +0.000 A 
ATOM     11  C   UNL     1     -33.099  -5.491  -2.321  0.00  0.00    +0.000 A 
ATOM     12  C   UNL     1     -31.844  -5.230  -1.783  0.00  0.00    +0.000 A 
ATOM     13  O   UNL     1     -31.633  -5.077  -0.412  0.00  0.00    +0.000 OA
ATOM     14  C   UNL     1     -30.813  -5.118  -2.707  0.00  0.00    +0.000 A 
ATOM     15  C   UNL     1     -31.095  -4.578  -3.957  0.00  0.00    +0.000 A 
ATOM     16  O   UNL     1     -30.101  -4.432  -4.929  0.00  0.00    +0.000 OA
ATOM     17  C   UNL     1     -32.437  -4.422  -4.285  0.00  0.00    +0.000 A 
ENDBRANCH   9  10
ENDBRANCH   7   8
BRANCH   1  18
ATOM     18  O   UNL     1     -36.749  -6.520  -7.556  0.00  0.00    +0.000 OA
BRANCH  18  26
ATOM     19  C   UNL     1     -36.607 -12.513 -12.447  0.00  0.00    +0.000 C 
ATOM     20  C   UNL     1     -36.215 -11.218 -12.063  0.00  0.00    +0.000 A 
ATOM     21  C   UNL     1     -36.158 -10.741 -10.770  0.00  0.00    +0.000 A 
ATOM     22  C   UNL     1     -35.711  -9.466 -10.462  0.00  0.00    +0.000 A 
ATOM     23  N   UNL     1     -36.132  -8.817  -9.254  0.00  0.00    +0.000 N 
ATOM     24  C   UNL     1     -37.352  -8.003  -9.277  0.00  0.00    +0.000 C 
ATOM     25  C   UNL     1     -36.600  -6.811  -9.848  0.00  0.00    +0.000 C 
ATOM     26  C   UNL     1     -35.567  -6.566  -8.567  0.00  0.00    +0.000 C 
ATOM     27  C   UNL     1     -35.319  -8.185  -8.298  0.00  0.00    +0.000 C 
ATOM     28  N   UNL     1     -35.360  -8.693 -11.517  0.00  0.00    +0.000 NA
ATOM     29  C   UNL     1     -35.402  -9.131 -12.792  0.00  0.00    +0.000 A 
ATOM     30 CL   UNL     1     -35.384  -7.954 -14.104  0.00  0.00    +0.000 Cl
ATOM     31  N   UNL     1     -35.923 -10.332 -13.043  0.00  0.00    +0.000 NA
ENDBRANCH  18  26
ENDBRANCH   1  18
TORSDOF 4
ENDMDL
