MODEL 1
REMARK VINA RESULT:      -8.4      0.000      0.000
REMARK  Name = 
REMARK  4 active torsions:
REMARK  status: ('A' for Active; 'I' for Inactive)
REMARK    1  A    between atoms: C_14  and  O_15
REMARK    2  A    between atoms: O_15  and  C_16
REMARK    3  A    between atoms: C_22  and  C_23
REMARK    4  A    between atoms: C_24  and  C_25
REMARK                            x       y       z     vdW  Elec       q    Type
REMARK                         _______ _______ _______ _____ _____    ______ ____
ROOT
ATOM      1  C   UNL     1     -38.008  -5.097  -9.927  0.00  0.00    +0.000 A 
ATOM      2  C   UNL     1     -38.198  -3.761  -9.587  0.00  0.00    +0.000 A 
ATOM      3  C   UNL     1     -38.697  -2.829 -10.457  0.00  0.00    +0.000 A 
ATOM      4  O   UNL     1     -39.113  -1.579  -9.996  0.00  0.00    +0.000 OA
ATOM      5  C   UNL     1     -38.398  -3.009 -11.780  0.00  0.00    +0.000 A 
ATOM      6  C   UNL     1     -38.139  -4.281 -12.212  0.00  0.00    +0.000 A 
ATOM      7  C   UNL     1     -38.103  -5.331 -11.298  0.00  0.00    +0.000 A 
ENDROOT
BRANCH   7   8
ATOM      8  C   UNL     1     -37.532  -6.560 -11.869  0.00  0.00    +0.000 C 
ATOM      9  C   UNL     1     -36.487  -6.571 -12.662  0.00  0.00    +0.000 C 
BRANCH   9  10
ATOM     10  C   UNL     1     -35.772  -7.834 -12.879  0.00  0.00    +0.000 A 
ATOM     11  C   UNL     1     -35.728  -8.719 -11.810  0.00  0.00    +0.000 A 
ATOM     12  C   UNL     1     -35.754 -10.086 -11.967  0.00  0.00    +0.000 A 
ATOM     13  O   UNL     1     -35.958 -10.960 -10.895  0.00  0.00    +0.000 OA
ATOM     14  C   UNL     1     -35.734 -10.588 -13.262  0.00  0.00    +0.000 A 
ATOM     15  C   UNL     1     -35.684  -9.766 -14.353  0.00  0.00    +0.000 A 
ATOM     16  O   UNL     1     -35.626 -10.210 -15.661  0.00  0.00    +0.000 OA
ATOM     17  C   UNL     1     -35.827  -8.403 -14.134  0.00  0.00    +0.000 A 
ENDBRANCH   9  10
ENDBRANCH   7   8
BRANCH   1  18
ATOM     18  O   UNL     1     -37.289  -5.997  -9.214  0.00  0.00    +0.000 OA
BRANCH  18  32
ATOM     19  O   UNL     1     -33.849  -7.426  -5.020  0.00  0.00    +0.000 OA
ATOM     20  C   UNL     1     -34.221  -6.560  -5.824  0.00  0.00    +0.000 A 
ATOM     21  C   UNL     1     -33.560  -5.341  -5.773  0.00  0.00    +0.000 A 
ATOM     22  C   UNL     1     -32.772  -4.967  -4.692  0.00  0.00    +0.000 A 
ATOM     23  C   UNL     1     -32.666  -3.643  -4.284  0.00  0.00    +0.000 A 
ATOM     24  C   UNL     1     -33.236  -2.704  -5.137  0.00  0.00    +0.000 A 
ATOM     25  C   UNL     1     -33.577  -3.078  -6.433  0.00  0.00    +0.000 A 
ATOM     26  C   UNL     1     -34.030  -4.375  -6.642  0.00  0.00    +0.000 A 
ATOM     27  N   UNL     1     -34.997  -4.691  -7.510  0.00  0.00    +0.000 NA
ATOM     28  C   UNL     1     -35.593  -5.911  -7.575  0.00  0.00    +0.000 A 
ATOM     29  N   UNL     1     -35.407  -6.656  -6.474  0.00  0.00    +0.000 N 
ATOM     30  C   UNL     1     -36.410  -7.662  -6.305  0.00  0.00    +0.000 C 
ATOM     31  C   UNL     1     -37.372  -7.511  -7.433  0.00  0.00    +0.000 C 
ATOM     32  C   UNL     1     -37.248  -5.848  -7.652  0.00  0.00    +0.000 C 
ENDBRANCH  18  32
ENDBRANCH   1  18
TORSDOF 4
ENDMDL
MODEL 2
REMARK VINA RESULT:      -8.2      4.377      8.179
REMARK  Name = 
REMARK  4 active torsions:
REMARK  status: ('A' for Active; 'I' for Inactive)
REMARK    1  A    between atoms: C_14  and  O_15
REMARK    2  A    between atoms: O_15  and  C_16
REMARK    3  A    between atoms: C_22  and  C_23
REMARK    4  A    between atoms: C_24  and  C_25
REMARK                            x       y       z     vdW  Elec       q    Type
REMARK                         _______ _______ _______ _____ _____    ______ ____
ROOT
ATOM      1  C   UNL     1     -31.025  -4.261  -4.080  0.00  0.00    +0.000 A 
ATOM      2  C   UNL     1     -29.690  -4.517  -3.784  0.00  0.00    +0.000 A 
ATOM      3  C   UNL     1     -28.651  -4.073  -4.557  0.00  0.00    +0.000 A 
ATOM      4  O   UNL     1     -27.339  -4.127  -4.082  0.00  0.00    +0.000 OA
ATOM      5  C   UNL     1     -28.891  -3.970  -5.900  0.00  0.00    +0.000 A 
ATOM      6  C   UNL     1     -30.182  -3.772  -6.307  0.00  0.00    +0.000 A 
ATOM      7  C   UNL     1     -31.213  -3.765  -5.370  0.00  0.00    +0.000 A 
ENDROOT
BRANCH   7   8
ATOM      8  C   UNL     1     -32.544  -3.834  -5.991  0.00  0.00    +0.000 C 
ATOM      9  C   UNL     1     -33.581  -3.160  -5.553  0.00  0.00    +0.000 C 
BRANCH   9  10
ATOM     10  C   UNL     1     -34.746  -2.999  -6.431  0.00  0.00    +0.000 A 
ATOM     11  C   UNL     1     -35.155  -4.120  -7.139  0.00  0.00    +0.000 A 
ATOM     12  C   UNL     1     -36.475  -4.389  -7.422  0.00  0.00    +0.000 A 
ATOM     13  O   UNL     1     -36.900  -5.627  -7.912  0.00  0.00    +0.000 OA
ATOM     14  C   UNL     1     -37.420  -3.440  -7.053  0.00  0.00    +0.000 A 
ATOM     15  C   UNL     1     -37.067  -2.272  -6.436  0.00  0.00    +0.000 A 
ATOM     16  O   UNL     1     -37.959  -1.279  -6.079  0.00  0.00    +0.000 OA
ATOM     17  C   UNL     1     -35.746  -2.137  -6.031  0.00  0.00    +0.000 A 
ENDBRANCH   9  10
ENDBRANCH   7   8
BRANCH   1  18
ATOM     18  O   UNL     1     -32.090  -4.878  -3.516  0.00  0.00    +0.000 OA
BRANCH  18  32
ATOM     19  O   UNL     1     -35.611  -8.952  -1.942  0.00  0.00    +0.000 OA
ATOM     20  C   UNL     1     -35.121  -8.287  -2.864  0.00  0.00    +0.000 A 
ATOM     21  C   UNL     1     -35.566  -8.580  -4.145  0.00  0.00    +0.000 A 
ATOM     22  C   UNL     1     -36.252  -9.750  -4.445  0.00  0.00    +0.000 A 
ATOM     23  C   UNL     1     -36.123 -10.382  -5.676  0.00  0.00    +0.000 A 
ATOM     24  C   UNL     1     -35.426  -9.671  -6.646  0.00  0.00    +0.000 A 
ATOM     25  C   UNL     1     -35.186  -8.314  -6.457  0.00  0.00    +0.000 A 
ATOM     26  C   UNL     1     -34.964  -7.863  -5.162  0.00  0.00    +0.000 A 
ATOM     27  N   UNL     1     -34.086  -6.902  -4.852  0.00  0.00    +0.000 NA
ATOM     28  C   UNL     1     -33.705  -6.599  -3.582  0.00  0.00    +0.000 A 
ATOM     29  N   UNL     1     -33.985  -7.566  -2.695  0.00  0.00    +0.000 N 
ATOM     30  C   UNL     1     -33.161  -7.507  -1.527  0.00  0.00    +0.000 C 
ATOM     31  C   UNL     1     -32.217  -6.370  -1.718  0.00  0.00    +0.000 C 
ATOM     32  C   UNL     1     -32.065  -6.443  -3.392  0.00  0.00    +0.000 C 
ENDBRANCH  18  32
ENDBRANCH   1  18
TORSDOF 4
ENDMDL
MODEL 3
REMARK VINA RESULT:      -8.0     13.453     16.976
REMARK  Name = 
REMARK  4 active torsions:
REMARK  status: ('A' for Active; 'I' for Inactive)
REMARK    1  A    between atoms: C_14  and  O_15
REMARK    2  A    between atoms: O_15  and  C_16
REMARK    3  A    between atoms: C_22  and  C_23
REMARK    4  A    between atoms: C_24  and  C_25
REMARK                            x       y       z     vdW  Elec       q    Type
REMARK                         _______ _______ _______ _____ _____    ______ ____
ROOT
ATOM      1  C   UNL     1     -32.305   7.068  -9.745  0.00  0.00    +0.000 A 
ATOM      2  C   UNL     1     -32.771   6.080  -8.882  0.00  0.00    +0.000 A 
ATOM      3  C   UNL     1     -33.699   6.315  -7.903  0.00  0.00    +0.000 A 
ATOM      4  O   UNL     1     -34.322   5.253  -7.247  0.00  0.00    +0.000 OA
ATOM      5  C   UNL     1     -33.682   7.560  -7.334  0.00  0.00    +0.000 A 
ATOM      6  C   UNL     1     -33.191   8.598  -8.077  0.00  0.00    +0.000 A 
ATOM      7  C   UNL     1     -32.652   8.356  -9.339  0.00  0.00    +0.000 A 
ENDROOT
BRANCH   7   8
ATOM      8  C   UNL     1     -31.915   9.511  -9.872  0.00  0.00    +0.000 C 
ATOM      9  C   UNL     1     -31.173  10.299  -9.131  0.00  0.00    +0.000 C 
BRANCH   9  10
ATOM     10  C   UNL     1     -30.198  11.180  -9.785  0.00  0.00    +0.000 A 
ATOM     11  C   UNL     1     -29.166  11.667  -8.995  0.00  0.00    +0.000 A 
ATOM     12  C   UNL     1     -27.893  11.881  -9.472  0.00  0.00    +0.000 A 
ATOM     13  O   UNL     1     -26.808  12.132  -8.627  0.00  0.00    +0.000 OA
ATOM     14  C   UNL     1     -27.670  11.682 -10.828  0.00  0.00    +0.000 A 
ATOM     15  C   UNL     1     -28.671  11.292 -11.674  0.00  0.00    +0.000 A 
ATOM     16  O   UNL     1     -28.515  11.113 -13.036  0.00  0.00    +0.000 OA
ATOM     17  C   UNL     1     -29.885  10.933 -11.106  0.00  0.00    +0.000 A 
ENDBRANCH   9  10
ENDBRANCH   7   8
BRANCH   1  18
ATOM     18  O   UNL     1     -31.220   6.965 -10.548  0.00  0.00    +0.000 OA
BRANCH  18  32
ATOM     19  O   UNL     1     -25.645   7.024 -11.167  0.00  0.00    +0.000 OA
ATOM     20  C   UNL     1     -26.629   7.357 -10.493  0.00  0.00    +0.000 A 
ATOM     21  C   UNL     1     -26.376   8.090  -9.343  0.00  0.00    +0.000 A 
ATOM     22  C   UNL     1     -25.110   8.171  -8.776  0.00  0.00    +0.000 A 
ATOM     23  C   UNL     1     -24.926   8.278  -7.403  0.00  0.00    +0.000 A 
ATOM     24  C   UNL     1     -26.080   8.494  -6.657  0.00  0.00    +0.000 A 
ATOM     25  C   UNL     1     -27.245   8.893  -7.304  0.00  0.00    +0.000 A 
ATOM     26  C   UNL     1     -27.486   8.401  -8.581  0.00  0.00    +0.000 A 
ATOM     27  N   UNL     1     -28.701   8.068  -9.029  0.00  0.00    +0.000 NA
ATOM     28  C   UNL     1     -28.926   7.393 -10.188  0.00  0.00    +0.000 A 
ATOM     29  N   UNL     1     -27.838   6.766 -10.662  0.00  0.00    +0.000 N 
ATOM     30  C   UNL     1     -28.157   5.676 -11.531  0.00  0.00    +0.000 C 
ATOM     31  C   UNL     1     -29.643   5.585 -11.588  0.00  0.00    +0.000 C 
ATOM     32  C   UNL     1     -29.991   6.132 -10.037  0.00  0.00    +0.000 C 
ENDBRANCH  18  32
ENDBRANCH   1  18
TORSDOF 4
ENDMDL
MODEL 4
REMARK VINA RESULT:      -8.0     14.116     16.995
REMARK  Name = 
REMARK  4 active torsions:
REMARK  status: ('A' for Active; 'I' for Inactive)
REMARK    1  A    between atoms: C_14  and  O_15
REMARK    2  A    between atoms: O_15  and  C_16
REMARK    3  A    between atoms: C_22  and  C_23
REMARK    4  A    between atoms: C_24  and  C_25
REMARK                            x       y       z     vdW  Elec       q    Type
REMARK                         _______ _______ _______ _____ _____    ______ ____
ROOT
ATOM      1  C   UNL     1     -26.195   9.729  -6.961  0.00  0.00    +0.000 A 
ATOM      2  C   UNL     1     -25.405   9.773  -5.817  0.00  0.00    +0.000 A 
ATOM      3  C   UNL     1     -24.109   9.333  -5.782  0.00  0.00    +0.000 A 
ATOM      4  O   UNL     1     -23.284   9.638  -4.698  0.00  0.00    +0.000 OA
ATOM      5  C   UNL     1     -23.799   8.287  -6.608  0.00  0.00    +0.000 A 
ATOM      6  C   UNL     1     -24.551   8.117  -7.738  0.00  0.00    +0.000 A 
ATOM      7  C   UNL     1     -25.646   8.945  -7.975  0.00  0.00    +0.000 A 
ENDROOT
BRANCH   7   8
ATOM      8  C   UNL     1     -26.505   8.451  -9.061  0.00  0.00    +0.000 C 
ATOM      9  C   UNL     1     -26.060   7.739 -10.069  0.00  0.00    +0.000 C 
BRANCH   9  10
ATOM     10  C   UNL     1     -27.018   6.989 -10.888  0.00  0.00    +0.000 A 
ATOM     11  C   UNL     1     -27.208   5.653 -10.562  0.00  0.00    +0.000 A 
ATOM     12  C   UNL     1     -28.422   5.016 -10.685  0.00  0.00    +0.000 A 
ATOM     13  O   UNL     1     -28.668   3.757 -10.130  0.00  0.00    +0.000 OA
ATOM     14  C   UNL     1     -29.473   5.732 -11.245  0.00  0.00    +0.000 A 
ATOM     15  C   UNL     1     -29.321   7.022 -11.671  0.00  0.00    +0.000 A 
ATOM     16  O   UNL     1     -30.319   7.769 -12.268  0.00  0.00    +0.000 OA
ATOM     17  C   UNL     1     -28.125   7.658 -11.369  0.00  0.00    +0.000 A 
ENDBRANCH   9  10
ENDBRANCH   7   8
BRANCH   1  18
ATOM     18  O   UNL     1     -27.538   9.902  -6.999  0.00  0.00    +0.000 OA
BRANCH  18  32
ATOM     19  O   UNL     1     -32.178   8.172  -4.366  0.00  0.00    +0.000 OA
ATOM     20  C   UNL     1     -30.953   8.068  -4.508  0.00  0.00    +0.000 A 
ATOM     21  C   UNL     1     -30.313   7.123  -3.720  0.00  0.00    +0.000 A 
ATOM     22  C   UNL     1     -30.914   6.557  -2.602  0.00  0.00    +0.000 A 
ATOM     23  C   UNL     1     -30.180   6.184  -1.483  0.00  0.00    +0.000 A 
ATOM     24  C   UNL     1     -28.798   6.233  -1.628  0.00  0.00    +0.000 A 
ATOM     25  C   UNL     1     -28.248   6.331  -2.903  0.00  0.00    +0.000 A 
ATOM     26  C   UNL     1     -28.939   7.066  -3.858  0.00  0.00    +0.000 A 
ATOM     27  N   UNL     1     -28.342   7.834  -4.776  0.00  0.00    +0.000 NA
ATOM     28  C   UNL     1     -29.000   8.717  -5.574  0.00  0.00    +0.000 A 
ATOM     29  N   UNL     1     -30.226   9.031  -5.127  0.00  0.00    +0.000 N 
ATOM     30  C   UNL     1     -30.696  10.288  -5.624  0.00  0.00    +0.000 C 
ATOM     31  C   UNL     1     -29.609  10.854  -6.472  0.00  0.00    +0.000 C 
ATOM     32  C   UNL     1     -28.287  10.212  -5.655  0.00  0.00    +0.000 C 
ENDBRANCH  18  32
ENDBRANCH   1  18
TORSDOF 4
ENDMDL
MODEL 5
REMARK VINA RESULT:      -7.8      1.014      1.324
REMARK  Name = 
REMARK  4 active torsions:
REMARK  status: ('A' for Active; 'I' for Inactive)
REMARK    1  A    between atoms: C_14  and  O_15
REMARK    2  A    between atoms: O_15  and  C_16
REMARK    3  A    between atoms: C_22  and  C_23
REMARK    4  A    between atoms: C_24  and  C_25
REMARK                            x       y       z     vdW  Elec       q    Type
REMARK                         _______ _______ _______ _____ _____    ______ ____
ROOT
ATOM      1  C   UNL     1     -38.099  -5.066  -9.987  0.00  0.00    +0.000 A 
ATOM      2  C   UNL     1     -38.321  -3.738  -9.636  0.00  0.00    +0.000 A 
ATOM      3  C   UNL     1     -38.843  -2.810 -10.497  0.00  0.00    +0.000 A 
ATOM      4  O   UNL     1     -39.288  -1.574 -10.025  0.00  0.00    +0.000 OA
ATOM      5  C   UNL     1     -38.540  -2.971 -11.822  0.00  0.00    +0.000 A 
ATOM      6  C   UNL     1     -38.250  -4.232 -12.265  0.00  0.00    +0.000 A 
ATOM      7  C   UNL     1     -38.189  -5.290 -11.361  0.00  0.00    +0.000 A 
ENDROOT
BRANCH   7   8
ATOM      8  C   UNL     1     -37.589  -6.499 -11.942  0.00  0.00    +0.000 C 
ATOM      9  C   UNL     1     -36.545  -6.478 -12.736  0.00  0.00    +0.000 C 
BRANCH   9  10
ATOM     10  C   UNL     1     -35.800  -7.722 -12.965  0.00  0.00    +0.000 A 
ATOM     11  C   UNL     1     -35.682  -8.587 -11.886  0.00  0.00    +0.000 A 
ATOM     12  C   UNL     1     -35.671  -9.957 -12.020  0.00  0.00    +0.000 A 
ATOM     13  O   UNL     1     -35.800 -10.818 -10.927  0.00  0.00    +0.000 OA
ATOM     14  C   UNL     1     -35.690 -10.479 -13.307  0.00  0.00    +0.000 A 
ATOM     15  C   UNL     1     -35.713  -9.675 -14.412  0.00  0.00    +0.000 A 
ATOM     16  O   UNL     1     -35.696 -10.138 -15.714  0.00  0.00    +0.000 OA
ATOM     17  C   UNL     1     -35.890  -8.313 -14.207  0.00  0.00    +0.000 A 
ENDBRANCH   9  10
ENDBRANCH   7   8
BRANCH   1  18
ATOM     18  O   UNL     1     -37.359  -5.955  -9.283  0.00  0.00    +0.000 OA
BRANCH  18  32
ATOM     19  O   UNL     1     -35.525  -9.155  -5.057  0.00  0.00    +0.000 OA
ATOM     20  C   UNL     1     -35.491  -8.062  -5.636  0.00  0.00    +0.000 A 
ATOM     21  C   UNL     1     -34.646  -7.101  -5.099  0.00  0.00    +0.000 A 
ATOM     22  C   UNL     1     -34.122  -7.204  -3.816  0.00  0.00    +0.000 A 
ATOM     23  C   UNL     1     -33.877  -6.084  -3.031  0.00  0.00    +0.000 A 
ATOM     24  C   UNL     1     -34.003  -4.859  -3.677  0.00  0.00    +0.000 A 
ATOM     25  C   UNL     1     -34.046  -4.821  -5.066  0.00  0.00    +0.000 A 
ATOM     26  C   UNL     1     -34.667  -5.872  -5.731  0.00  0.00    +0.000 A 
ATOM     27  N   UNL     1     -35.405  -5.717  -6.835  0.00  0.00    +0.000 NA
ATOM     28  C   UNL     1     -36.186  -6.693  -7.372  0.00  0.00    +0.000 A 
ATOM     29  N   UNL     1     -36.452  -7.694  -6.519  0.00  0.00    +0.000 N 
ATOM     30  C   UNL     1     -37.638  -8.417  -6.860  0.00  0.00    +0.000 C 
ATOM     31  C   UNL     1     -38.211  -7.765  -8.072  0.00  0.00    +0.000 C 
ATOM     32  C   UNL     1     -37.714  -6.188  -7.771  0.00  0.00    +0.000 C 
ENDBRANCH  18  32
ENDBRANCH   1  18
TORSDOF 4
ENDMDL
MODEL 6
REMARK VINA RESULT:      -7.7     13.803     17.284
REMARK  Name = 
REMARK  4 active torsions:
REMARK  status: ('A' for Active; 'I' for Inactive)
REMARK    1  A    between atoms: C_14  and  O_15
REMARK    2  A    between atoms: O_15  and  C_16
REMARK    3  A    between atoms: C_22  and  C_23
REMARK    4  A    between atoms: C_24  and  C_25
REMARK                            x       y       z     vdW  Elec       q    Type
REMARK                         _______ _______ _______ _____ _____    ______ ____
ROOT
ATOM      1  C   UNL     1     -29.781   7.245 -10.807  0.00  0.00    +0.000 A 
ATOM      2  C   UNL     1     -29.012   6.142 -10.448  0.00  0.00    +0.000 A 
ATOM      3  C   UNL     1     -29.465   4.852 -10.528  0.00  0.00    +0.000 A 
ATOM      4  O   UNL     1     -28.578   3.780 -10.410  0.00  0.00    +0.000 OA
ATOM      5  C   UNL     1     -30.804   4.663 -10.319  0.00  0.00    +0.000 A 
ATOM      6  C   UNL     1     -31.648   5.704 -10.589  0.00  0.00    +0.000 A 
ATOM      7  C   UNL     1     -31.130   6.936 -10.982  0.00  0.00    +0.000 A 
ENDROOT
BRANCH   7   8
ATOM      8  C   UNL     1     -32.133   8.010 -10.948  0.00  0.00    +0.000 C 
ATOM      9  C   UNL     1     -32.289   8.885 -11.913  0.00  0.00    +0.000 C 
BRANCH   9  10
ATOM     10  C   UNL     1     -33.527   9.670 -11.968  0.00  0.00    +0.000 A 
ATOM     11  C   UNL     1     -33.396  11.026 -12.234  0.00  0.00    +0.000 A 
ATOM     12  C   UNL     1     -34.318  11.740 -12.965  0.00  0.00    +0.000 A 
ATOM     13  O   UNL     1     -34.064  13.032 -13.436  0.00  0.00    +0.000 OA
ATOM     14  C   UNL     1     -35.469  11.079 -13.374  0.00  0.00    +0.000 A 
ATOM     15  C   UNL     1     -35.697   9.767 -13.063  0.00  0.00    +0.000 A 
ATOM     16  O   UNL     1     -36.838   9.070 -13.411  0.00  0.00    +0.000 OA
ATOM     17  C   UNL     1     -34.659   9.062 -12.469  0.00  0.00    +0.000 A 
ENDBRANCH   9  10
ENDBRANCH   7   8
BRANCH   1  18
ATOM     18  O   UNL     1     -29.496   8.535 -10.513  0.00  0.00    +0.000 OA
BRANCH  18  32
ATOM     19  O   UNL     1     -26.178  12.100  -7.729  0.00  0.00    +0.000 OA
ATOM     20  C   UNL     1     -26.587  10.940  -7.870  0.00  0.00    +0.000 A 
ATOM     21  C   UNL     1     -26.074   9.990  -6.998  0.00  0.00    +0.000 A 
ATOM     22  C   UNL     1     -24.934  10.218  -6.237  0.00  0.00    +0.000 A 
ATOM     23  C   UNL     1     -24.050   9.195  -5.915  0.00  0.00    +0.000 A 
ATOM     24  C   UNL     1     -24.476   7.910  -6.234  0.00  0.00    +0.000 A 
ATOM     25  C   UNL     1     -25.816   7.692  -6.539  0.00  0.00    +0.000 A 
ATOM     26  C   UNL     1     -26.505   8.694  -7.210  0.00  0.00    +0.000 A 
ATOM     27  N   UNL     1     -27.427   8.458  -8.151  0.00  0.00    +0.000 NA
ATOM     28  C   UNL     1     -27.952   9.417  -8.959  0.00  0.00    +0.000 A 
ATOM     29  N   UNL     1     -27.222  10.542  -9.000  0.00  0.00    +0.000 N 
ATOM     30  C   UNL     1     -27.449  11.312 -10.184  0.00  0.00    +0.000 C 
ATOM     31  C   UNL     1     -28.431  10.557 -11.012  0.00  0.00    +0.000 C 
ATOM     32  C   UNL     1     -27.996   8.996 -10.562  0.00  0.00    +0.000 C 
ENDBRANCH  18  32
ENDBRANCH   1  18
TORSDOF 4
ENDMDL
MODEL 7
REMARK VINA RESULT:      -7.6      3.487      7.866
REMARK  Name = 
REMARK  4 active torsions:
REMARK  status: ('A' for Active; 'I' for Inactive)
REMARK    1  A    between atoms: C_14  and  O_15
REMARK    2  A    between atoms: O_15  and  C_16
REMARK    3  A    between atoms: C_22  and  C_23
REMARK    4  A    between atoms: C_24  and  C_25
REMARK                            x       y       z     vdW  Elec       q    Type
REMARK                         _______ _______ _______ _____ _____    ______ ____
ROOT
ATOM      1  C   UNL     1     -32.409  -4.628  -3.817  0.00  0.00    +0.000 A 
ATOM      2  C   UNL     1     -31.107  -5.083  -4.006  0.00  0.00    +0.000 A 
ATOM      3  C   UNL     1     -30.125  -4.326  -4.585  0.00  0.00    +0.000 A 
ATOM      4  O   UNL     1     -28.788  -4.722  -4.513  0.00  0.00    +0.000 OA
ATOM      5  C   UNL     1     -30.527  -3.436  -5.544  0.00  0.00    +0.000 A 
ATOM      6  C   UNL     1     -31.809  -2.965  -5.484  0.00  0.00    +0.000 A 
ATOM      7  C   UNL     1     -32.686  -3.456  -4.520  0.00  0.00    +0.000 A 
ENDROOT
BRANCH   7   8
ATOM      8  C   UNL     1     -34.082  -3.072  -4.773  0.00  0.00    +0.000 C 
ATOM      9  C   UNL     1     -34.485  -2.507  -5.887  0.00  0.00    +0.000 C 
BRANCH   9  10
ATOM     10  C   UNL     1     -35.919  -2.499  -6.201  0.00  0.00    +0.000 A 
ATOM     11  C   UNL     1     -36.593  -1.300  -6.017  0.00  0.00    +0.000 A 
ATOM     12  C   UNL     1     -37.629  -0.890  -6.824  0.00  0.00    +0.000 A 
ATOM     13  O   UNL     1     -38.135   0.413  -6.790  0.00  0.00    +0.000 OA
ATOM     14  C   UNL     1     -38.066  -1.766  -7.809  0.00  0.00    +0.000 A 
ATOM     15  C   UNL     1     -37.503  -3.000  -7.978  0.00  0.00    +0.000 A 
ATOM     16  O   UNL     1     -37.920  -3.926  -8.916  0.00  0.00    +0.000 OA
ATOM     17  C   UNL     1     -36.359  -3.286  -7.245  0.00  0.00    +0.000 A 
ENDBRANCH   9  10
ENDBRANCH   7   8
BRANCH   1  18
ATOM     18  O   UNL     1     -33.475  -5.400  -3.496  0.00  0.00    +0.000 OA
BRANCH  18  32
ATOM     19  O   UNL     1     -37.450  -9.119  -4.850  0.00  0.00    +0.000 OA
ATOM     20  C   UNL     1     -36.683  -8.221  -5.222  0.00  0.00    +0.000 A 
ATOM     21  C   UNL     1     -36.737  -7.875  -6.564  0.00  0.00    +0.000 A 
ATOM     22  C   UNL     1     -37.344  -8.683  -7.517  0.00  0.00    +0.000 A 
ATOM     23  C   UNL     1     -36.878  -8.755  -8.824  0.00  0.00    +0.000 A 
ATOM     24  C   UNL     1     -35.897  -7.829  -9.164  0.00  0.00    +0.000 A 
ATOM     25  C   UNL     1     -35.676  -6.734  -8.335  0.00  0.00    +0.000 A 
ATOM     26  C   UNL     1     -35.833  -6.909  -6.965  0.00  0.00    +0.000 A 
ATOM     27  N   UNL     1     -35.054  -6.323  -6.049  0.00  0.00    +0.000 NA
ATOM     28  C   UNL     1     -35.058  -6.645  -4.728  0.00  0.00    +0.000 A 
ATOM     29  N   UNL     1     -35.624  -7.833  -4.469  0.00  0.00    +0.000 N 
ATOM     30  C   UNL     1     -35.184  -8.403  -3.233  0.00  0.00    +0.000 C 
ATOM     31  C   UNL     1     -34.185  -7.462  -2.652  0.00  0.00    +0.000 C 
ATOM     32  C   UNL     1     -33.545  -6.855  -4.083  0.00  0.00    +0.000 C 
ENDBRANCH  18  32
ENDBRANCH   1  18
TORSDOF 4
ENDMDL
MODEL 8
REMARK VINA RESULT:      -7.5     31.589     35.432
REMARK  Name = 
REMARK  4 active torsions:
REMARK  status: ('A' for Active; 'I' for Inactive)
REMARK    1  A    between atoms: C_14  and  O_15
REMARK    2  A    between atoms: O_15  and  C_16
REMARK    3  A    between atoms: C_22  and  C_23
REMARK    4  A    between atoms: C_24  and  C_25
REMARK                            x       y       z     vdW  Elec       q    Type
REMARK                         _______ _______ _______ _____ _____    ______ ____
ROOT
ATOM      1  C   UNL     1     -14.520  16.187   1.252  0.00  0.00    +0.000 A 
ATOM      2  C   UNL     1     -15.028  14.892   1.202  0.00  0.00    +0.000 A 
ATOM      3  C   UNL     1     -14.564  13.873   1.989  0.00  0.00    +0.000 A 
ATOM      4  O   UNL     1     -15.274  12.675   2.090  0.00  0.00    +0.000 OA
ATOM      5  C   UNL     1     -13.238  13.916   2.324  0.00  0.00    +0.000 A 
ATOM      6  C   UNL     1     -12.623  15.138   2.350  0.00  0.00    +0.000 A 
ATOM      7  C   UNL     1     -13.324  16.277   1.963  0.00  0.00    +0.000 A 
ENDROOT
BRANCH   7   8
ATOM      8  C   UNL     1     -12.448  17.443   1.771  0.00  0.00    +0.000 C 
ATOM      9  C   UNL     1     -12.460  18.493   2.558  0.00  0.00    +0.000 C 
BRANCH   9  10
ATOM     10  C   UNL     1     -11.325  19.423   2.520  0.00  0.00    +0.000 A 
ATOM     11  C   UNL     1     -10.535  19.493   3.659  0.00  0.00    +0.000 A 
ATOM     12  C   UNL     1      -9.176  19.706   3.618  0.00  0.00    +0.000 A 
ATOM     13  O   UNL     1      -8.356  19.531   4.736  0.00  0.00    +0.000 OA
ATOM     14  C   UNL     1      -8.598  19.948   2.379  0.00  0.00    +0.000 A 
ATOM     15  C   UNL     1      -9.340  19.984   1.231  0.00  0.00    +0.000 A 
ATOM     16  O   UNL     1      -8.825  20.256  -0.022  0.00  0.00    +0.000 OA
ATOM     17  C   UNL     1     -10.670  19.599   1.318  0.00  0.00    +0.000 A 
ENDBRANCH   9  10
ENDBRANCH   7   8
BRANCH   1  18
ATOM     18  O   UNL     1     -14.748  17.160   0.337  0.00  0.00    +0.000 OA
BRANCH  18  32
ATOM     19  O   UNL     1     -15.714  19.700  -4.569  0.00  0.00    +0.000 OA
ATOM     20  C   UNL     1     -14.892  19.196  -3.793  0.00  0.00    +0.000 A 
ATOM     21  C   UNL     1     -13.565  19.207  -4.200  0.00  0.00    +0.000 A 
ATOM     22  C   UNL     1     -13.193  19.445  -5.518  0.00  0.00    +0.000 A 
ATOM     23  C   UNL     1     -12.078  18.842  -6.087  0.00  0.00    +0.000 A 
ATOM     24  C   UNL     1     -11.257  18.147  -5.206  0.00  0.00    +0.000 A 
ATOM     25  C   UNL     1     -11.400  18.346  -3.837  0.00  0.00    +0.000 A 
ATOM     26  C   UNL     1     -12.675  18.589  -3.341  0.00  0.00    +0.000 A 
ATOM     27  N   UNL     1     -13.118  18.118  -2.170  0.00  0.00    +0.000 NA
ATOM     28  C   UNL     1     -14.417  18.167  -1.772  0.00  0.00    +0.000 A 
ATOM     29  N   UNL     1     -15.277  18.383  -2.779  0.00  0.00    +0.000 N 
ATOM     30  C   UNL     1     -16.602  17.929  -2.488  0.00  0.00    +0.000 C 
ATOM     31  C   UNL     1     -16.563  17.318  -1.129  0.00  0.00    +0.000 C 
ATOM     32  C   UNL     1     -14.986  16.737  -1.156  0.00  0.00    +0.000 C 
ENDBRANCH  18  32
ENDBRANCH   1  18
TORSDOF 4
ENDMDL
MODEL 9
REMARK VINA RESULT:      -7.4      3.627      8.465
REMARK  Name = 
REMARK  4 active torsions:
REMARK  status: ('A' for Active; 'I' for Inactive)
REMARK    1  A    between atoms: C_14  and  O_15
REMARK    2  A    between atoms: O_15  and  C_16
REMARK    3  A    between atoms: C_22  and  C_23
REMARK    4  A    between atoms: C_24  and  C_25
REMARK                            x       y       z     vdW  Elec       q    Type
REMARK                         _______ _______ _______ _____ _____    ______ ____
ROOT
ATOM      1  C   UNL     1     -32.606  -6.207  -3.157  0.00  0.00    +0.000 A 
ATOM      2  C   UNL     1     -31.681  -7.221  -2.923  0.00  0.00    +0.000 A 
ATOM      3  C   UNL     1     -30.335  -6.997  -2.808  0.00  0.00    +0.000 A 
ATOM      4  O   UNL     1     -29.490  -7.993  -2.316  0.00  0.00    +0.000 OA
ATOM      5  C   UNL     1     -29.824  -5.966  -3.548  0.00  0.00    +0.000 A 
ATOM      6  C   UNL     1     -30.663  -4.939  -3.883  0.00  0.00    +0.000 A 
ATOM      7  C   UNL     1     -32.013  -5.005  -3.543  0.00  0.00    +0.000 A 
ENDROOT
BRANCH   7   8
ATOM      8  C   UNL     1     -32.819  -3.979  -4.221  0.00  0.00    +0.000 C 
ATOM      9  C   UNL     1     -33.044  -3.974  -5.513  0.00  0.00    +0.000 C 
BRANCH   9  10
ATOM     10  C   UNL     1     -34.139  -3.151  -6.041  0.00  0.00    +0.000 A 
ATOM     11  C   UNL     1     -34.937  -3.726  -7.020  0.00  0.00    +0.000 A 
ATOM     12  C   UNL     1     -36.285  -3.474  -7.132  0.00  0.00    +0.000 A 
ATOM     13  O   UNL     1     -37.124  -4.234  -7.952  0.00  0.00    +0.000 OA
ATOM     14  C   UNL     1     -36.839  -2.532  -6.275  0.00  0.00    +0.000 A 
ATOM     15  C   UNL     1     -36.084  -1.865  -5.351  0.00  0.00    +0.000 A 
ATOM     16  O   UNL     1     -36.574  -0.894  -4.499  0.00  0.00    +0.000 OA
ATOM     17  C   UNL     1     -34.772  -2.282  -5.177  0.00  0.00    +0.000 A 
ENDBRANCH   9  10
ENDBRANCH   7   8
BRANCH   1  18
ATOM     18  O   UNL     1     -33.894  -6.387  -3.534  0.00  0.00    +0.000 OA
BRANCH  18  32
ATOM     19  O   UNL     1     -38.587  -8.858  -5.359  0.00  0.00    +0.000 OA
ATOM     20  C   UNL     1     -37.539  -8.261  -5.638  0.00  0.00    +0.000 A 
ATOM     21  C   UNL     1     -37.298  -8.027  -6.984  0.00  0.00    +0.000 A 
ATOM     22  C   UNL     1     -37.985  -8.694  -7.990  0.00  0.00    +0.000 A 
ATOM     23  C   UNL     1     -37.387  -9.009  -9.205  0.00  0.00    +0.000 A 
ATOM     24  C   UNL     1     -36.133  -8.446  -9.419  0.00  0.00    +0.000 A 
ATOM     25  C   UNL     1     -35.705  -7.402  -8.606  0.00  0.00    +0.000 A 
ATOM     26  C   UNL     1     -36.096  -7.408  -7.273  0.00  0.00    +0.000 A 
ATOM     27  N   UNL     1     -35.310  -7.007  -6.268  0.00  0.00    +0.000 NA
ATOM     28  C   UNL     1     -35.595  -7.203  -4.953  0.00  0.00    +0.000 A 
ATOM     29  N   UNL     1     -36.527  -8.145  -4.743  0.00  0.00    +0.000 N 
ATOM     30  C   UNL     1     -36.458  -8.716  -3.433  0.00  0.00    +0.000 C 
ATOM     31  C   UNL     1     -35.310  -8.069  -2.737  0.00  0.00    +0.000 C 
ATOM     32  C   UNL     1     -34.323  -7.798  -4.071  0.00  0.00    +0.000 C 
ENDBRANCH  18  32
ENDBRANCH   1  18
TORSDOF 4
ENDMDL
MODEL 10
REMARK VINA RESULT:      -7.4     35.936     38.426
REMARK  Name = 
REMARK  4 active torsions:
REMARK  status: ('A' for Active; 'I' for Inactive)
REMARK    1  A    between atoms: C_14  and  O_15
REMARK    2  A    between atoms: O_15  and  C_16
REMARK    3  A    between atoms: C_22  and  C_23
REMARK    4  A    between atoms: C_24  and  C_25
REMARK                            x       y       z     vdW  Elec       q    Type
REMARK                         _______ _______ _______ _____ _____    ______ ____
ROOT
ATOM      1  C   UNL     1      -8.740  20.428 -21.790  0.00  0.00    +0.000 A 
ATOM      2  C   UNL     1      -8.070  21.648 -21.801  0.00  0.00    +0.000 A 
ATOM      3  C   UNL     1      -7.763  22.347 -20.664  0.00  0.00    +0.000 A 
ATOM      4  O   UNL     1      -6.870  23.418 -20.709  0.00  0.00    +0.000 OA
ATOM      5  C   UNL     1      -8.639  22.225 -19.619  0.00  0.00    +0.000 A 
ATOM      6  C   UNL     1      -9.390  21.085 -19.542  0.00  0.00    +0.000 A 
ATOM      7  C   UNL     1      -9.311  20.130 -20.553  0.00  0.00    +0.000 A 
ENDROOT
BRANCH   7   8
ATOM      8  C   UNL     1     -10.380  19.124 -20.468  0.00  0.00    +0.000 C 
ATOM      9  C   UNL     1     -11.393  19.214 -19.639  0.00  0.00    +0.000 C 
BRANCH   9  10
ATOM     10  C   UNL     1     -12.580  18.383 -19.874  0.00  0.00    +0.000 A 
ATOM     11  C   UNL     1     -13.809  18.946 -19.562  0.00  0.00    +0.000 A 
ATOM     12  C   UNL     1     -14.956  18.689 -20.279  0.00  0.00    +0.000 A 
ATOM     13  O   UNL     1     -16.124  19.438 -20.118  0.00  0.00    +0.000 OA
ATOM     14  C   UNL     1     -14.880  17.753 -21.302  0.00  0.00    +0.000 A 
ATOM     15  C   UNL     1     -13.718  17.096 -21.596  0.00  0.00    +0.000 A 
ATOM     16  O   UNL     1     -13.594  16.131 -22.577  0.00  0.00    +0.000 OA
ATOM     17  C   UNL     1     -12.565  17.519 -20.949  0.00  0.00    +0.000 A 
ENDBRANCH   9  10
ENDBRANCH   7   8
BRANCH   1  18
ATOM     18  O   UNL     1      -9.295  19.824 -22.867  0.00  0.00    +0.000 OA
BRANCH  18  32
ATOM     19  O   UNL     1     -13.231  19.232 -26.819  0.00  0.00    +0.000 OA
ATOM     20  C   UNL     1     -12.948  19.573 -25.663  0.00  0.00    +0.000 A 
ATOM     21  C   UNL     1     -13.996  20.032 -24.877  0.00  0.00    +0.000 A 
ATOM     22  C   UNL     1     -15.217  20.417 -25.416  0.00  0.00    +0.000 A 
ATOM     23  C   UNL     1     -15.979  21.436 -24.857  0.00  0.00    +0.000 A 
ATOM     24  C   UNL     1     -15.538  21.907 -23.625  0.00  0.00    +0.000 A 
ATOM     25  C   UNL     1     -14.609  21.166 -22.903  0.00  0.00    +0.000 A 
ATOM     26  C   UNL     1     -13.644  20.458 -23.610  0.00  0.00    +0.000 A 
ATOM     27  N   UNL     1     -12.378  20.322 -23.202  0.00  0.00    +0.000 NA
ATOM     28  C   UNL     1     -11.379  19.820 -23.976  0.00  0.00    +0.000 A 
ATOM     29  N   UNL     1     -11.668  19.815 -25.286  0.00  0.00    +0.000 N 
ATOM     30  C   UNL     1     -10.503  19.798 -26.115  0.00  0.00    +0.000 C 
ATOM     31  C   UNL     1      -9.322  19.825 -25.206  0.00  0.00    +0.000 C 
ATOM     32  C   UNL     1      -9.989  20.723 -23.950  0.00  0.00    +0.000 C 
ENDBRANCH  18  32
ENDBRANCH   1  18
TORSDOF 4
ENDMDL
