MODEL 1
REMARK VINA RESULT:      -6.9      0.000      0.000
REMARK  Name = 
REMARK  8 active torsions:
REMARK  status: ('A' for Active; 'I' for Inactive)
REMARK    1  A    between atoms: S_2  and  C_5
REMARK    2  A    between atoms: C_5  and  C_6
REMARK    3  A    between atoms: C_6  and  C_7
REMARK    4  A    between atoms: C_6  and  O_14
REMARK    5  A    between atoms: C_7  and  N_8
REMARK    6  A    between atoms: O_14  and  C_15
REMARK    7  A    between atoms: C_21  and  C_22
REMARK    8  A    between atoms: C_23  and  C_24
REMARK                            x       y       z     vdW  Elec       q    Type
REMARK                         _______ _______ _______ _____ _____    ______ ____
ROOT
ATOM      1  C   UNL     1     -34.587  -4.840  -5.807  0.00  0.00    +0.000 A 
ATOM      2  C   UNL     1     -33.363  -5.093  -6.421  0.00  0.00    +0.000 A 
ATOM      3  C   UNL     1     -32.603  -4.041  -6.918  0.00  0.00    +0.000 A 
ATOM      4  O   UNL     1     -32.026  -4.092  -8.192  0.00  0.00    +0.000 OA
ATOM      5  C   UNL     1     -32.803  -2.825  -6.275  0.00  0.00    +0.000 A 
ATOM      6  C   UNL     1     -33.910  -2.623  -5.456  0.00  0.00    +0.000 A 
ATOM      7  C   UNL     1     -34.941  -3.558  -5.402  0.00  0.00    +0.000 A 
ENDROOT
BRANCH   7   8
ATOM      8  C   UNL     1     -36.337  -3.180  -5.687  0.00  0.00    +0.000 C 
ATOM      9  C   UNL     1     -36.743  -2.291  -6.518  0.00  0.00    +0.000 C 
BRANCH   9  10
ATOM     10  C   UNL     1     -37.189  -0.935  -6.362  0.00  0.00    +0.000 A 
ATOM     11  C   UNL     1     -38.404  -0.771  -5.699  0.00  0.00    +0.000 A 
ATOM     12  C   UNL     1     -39.288   0.246  -6.017  0.00  0.00    +0.000 A 
ATOM     13  O   UNL     1     -40.381   0.577  -5.224  0.00  0.00    +0.000 OA
ATOM     14  C   UNL     1     -39.035   1.063  -7.114  0.00  0.00    +0.000 A 
ATOM     15  C   UNL     1     -37.889   0.836  -7.867  0.00  0.00    +0.000 A 
ATOM     16  O   UNL     1     -37.673   1.459  -9.099  0.00  0.00    +0.000 OA
ATOM     17  C   UNL     1     -36.888   0.132  -7.204  0.00  0.00    +0.000 A 
ENDBRANCH   9  10
ENDBRANCH   7   8
BRANCH   1  18
ATOM     18  O   UNL     1     -35.357  -5.862  -5.241  0.00  0.00    +0.000 OA
BRANCH  18  19
ATOM     19  C   UNL     1     -34.401  -7.014  -4.857  0.00  0.00    +0.000 C 
BRANCH  19  20
ATOM     20  C   UNL     1     -35.643  -8.086  -4.677  0.00  0.00    +0.000 C 
BRANCH  20  22
ATOM     21  O   UNL     1     -34.818  -8.945  -6.717  0.00  0.00    +0.000 OA
ATOM     22  S   UNL     1     -35.641  -9.113  -6.120  0.00  0.00    +0.000 S 
ATOM     23  O   UNL     1     -35.685 -10.582  -5.763  0.00  0.00    +0.000 OA
ATOM     24  O   UNL     1     -37.009  -8.868  -7.083  0.00  0.00    +0.000 OA
ENDBRANCH  20  22
ENDBRANCH  19  20
BRANCH  19  25
ATOM     25  C   UNL     1     -34.446  -6.603  -3.259  0.00  0.00    +0.000 C 
BRANCH  25  26
ATOM     26  N   UNL     1     -33.072  -6.230  -2.938  0.00  0.00    +0.000 N 
ATOM     27  C   UNL     1     -32.037  -7.051  -3.240  0.00  0.00    +0.000 A 
ATOM     28  C   UNL     1     -30.769  -6.866  -2.703  0.00  0.00    +0.000 A 
ATOM     29  C   UNL     1     -30.428  -5.590  -2.328  0.00  0.00    +0.000 A 
ATOM     30  C   UNL     1     -31.440  -4.652  -2.192  0.00  0.00    +0.000 A 
ATOM     31  C   UNL     1     -32.736  -4.963  -2.588  0.00  0.00    +0.000 A 
ENDBRANCH  25  26
ENDBRANCH  19  25
ENDBRANCH  18  19
ENDBRANCH   1  18
TORSDOF 8
ENDMDL
MODEL 2
REMARK VINA RESULT:      -6.8     19.599     20.878
REMARK  Name = 
REMARK  8 active torsions:
REMARK  status: ('A' for Active; 'I' for Inactive)
REMARK    1  A    between atoms: S_2  and  C_5
REMARK    2  A    between atoms: C_5  and  C_6
REMARK    3  A    between atoms: C_6  and  C_7
REMARK    4  A    between atoms: C_6  and  O_14
REMARK    5  A    between atoms: C_7  and  N_8
REMARK    6  A    between atoms: O_14  and  C_15
REMARK    7  A    between atoms: C_21  and  C_22
REMARK    8  A    between atoms: C_23  and  C_24
REMARK                            x       y       z     vdW  Elec       q    Type
REMARK                         _______ _______ _______ _____ _____    ______ ____
ROOT
ATOM      1  C   UNL     1     -20.183  -8.991   8.566  0.00  0.00    +0.000 A 
ATOM      2  C   UNL     1     -21.253  -9.699   9.105  0.00  0.00    +0.000 A 
ATOM      3  C   UNL     1     -22.312  -9.018   9.695  0.00  0.00    +0.000 A 
ATOM      4  O   UNL     1     -22.832  -9.406  10.935  0.00  0.00    +0.000 OA
ATOM      5  C   UNL     1     -22.522  -7.733   9.206  0.00  0.00    +0.000 A 
ATOM      6  C   UNL     1     -21.546  -7.087   8.454  0.00  0.00    +0.000 A 
ATOM      7  C   UNL     1     -20.267  -7.624   8.325  0.00  0.00    +0.000 A 
ENDROOT
BRANCH   7   8
ATOM      8  C   UNL     1     -19.068  -6.852   8.699  0.00  0.00    +0.000 C 
ATOM      9  C   UNL     1     -19.031  -5.761   9.371  0.00  0.00    +0.000 C 
BRANCH   9  10
ATOM     10  C   UNL     1     -18.891  -4.382   8.996  0.00  0.00    +0.000 A 
ATOM     11  C   UNL     1     -20.081  -3.697   8.757  0.00  0.00    +0.000 A 
ATOM     12  C   UNL     1     -20.180  -2.696   7.806  0.00  0.00    +0.000 A 
ATOM     13  O   UNL     1     -21.273  -1.842   7.713  0.00  0.00    +0.000 OA
ATOM     14  C   UNL     1     -19.104  -2.437   6.963  0.00  0.00    +0.000 A 
ATOM     15  C   UNL     1     -17.947  -3.195   7.101  0.00  0.00    +0.000 A 
ATOM     16  O   UNL     1     -16.913  -3.151   6.162  0.00  0.00    +0.000 OA
ATOM     17  C   UNL     1     -17.803  -3.814   8.340  0.00  0.00    +0.000 A 
ENDBRANCH   9  10
ENDBRANCH   7   8
BRANCH   1  18
ATOM     18  O   UNL     1     -19.126  -9.632   7.910  0.00  0.00    +0.000 OA
BRANCH  18  19
ATOM     19  C   UNL     1     -19.137  -9.168   6.436  0.00  0.00    +0.000 C 
BRANCH  19  20
ATOM     20  C   UNL     1     -19.614 -10.652   5.893  0.00  0.00    +0.000 C 
BRANCH  20  22
ATOM     21  O   UNL     1     -20.256  -9.551   3.904  0.00  0.00    +0.000 OA
ATOM     22  S   UNL     1     -19.903 -10.486   4.154  0.00  0.00    +0.000 S 
ATOM     23  O   UNL     1     -18.654 -10.761   3.348  0.00  0.00    +0.000 OA
ATOM     24  O   UNL     1     -21.033 -11.608   3.582  0.00  0.00    +0.000 OA
ENDBRANCH  20  22
ENDBRANCH  19  20
BRANCH  19  25
ATOM     25  C   UNL     1     -17.542  -9.546   6.240  0.00  0.00    +0.000 C 
BRANCH  25  26
ATOM     26  N   UNL     1     -17.005  -8.462   5.423  0.00  0.00    +0.000 N 
ATOM     27  C   UNL     1     -16.007  -8.687   4.535  0.00  0.00    +0.000 A 
ATOM     28  C   UNL     1     -15.287  -7.647   3.958  0.00  0.00    +0.000 A 
ATOM     29  C   UNL     1     -15.917  -6.433   3.851  0.00  0.00    +0.000 A 
ATOM     30  C   UNL     1     -17.065  -6.220   4.599  0.00  0.00    +0.000 A 
ATOM     31  C   UNL     1     -17.642  -7.271   5.303  0.00  0.00    +0.000 A 
ENDBRANCH  25  26
ENDBRANCH  19  25
ENDBRANCH  18  19
ENDBRANCH   1  18
TORSDOF 8
ENDMDL
MODEL 3
REMARK VINA RESULT:      -6.8     13.909     15.823
REMARK  Name = 
REMARK  8 active torsions:
REMARK  status: ('A' for Active; 'I' for Inactive)
REMARK    1  A    between atoms: S_2  and  C_5
REMARK    2  A    between atoms: C_5  and  C_6
REMARK    3  A    between atoms: C_6  and  C_7
REMARK    4  A    between atoms: C_6  and  O_14
REMARK    5  A    between atoms: C_7  and  N_8
REMARK    6  A    between atoms: O_14  and  C_15
REMARK    7  A    between atoms: C_21  and  C_22
REMARK    8  A    between atoms: C_23  and  C_24
REMARK                            x       y       z     vdW  Elec       q    Type
REMARK                         _______ _______ _______ _____ _____    ______ ____
ROOT
ATOM      1  C   UNL     1     -23.806   6.366  -1.800  0.00  0.00    +0.000 A 
ATOM      2  C   UNL     1     -22.989   6.006  -0.733  0.00  0.00    +0.000 A 
ATOM      3  C   UNL     1     -21.842   6.741  -0.455  0.00  0.00    +0.000 A 
ATOM      4  O   UNL     1     -20.616   6.116  -0.199  0.00  0.00    +0.000 OA
ATOM      5  C   UNL     1     -21.893   8.072  -0.855  0.00  0.00    +0.000 A 
ATOM      6  C   UNL     1     -22.862   8.511  -1.753  0.00  0.00    +0.000 A 
ATOM      7  C   UNL     1     -23.686   7.606  -2.417  0.00  0.00    +0.000 A 
ENDROOT
BRANCH   7   8
ATOM      8  C   UNL     1     -23.768   7.578  -3.889  0.00  0.00    +0.000 C 
ATOM      9  C   UNL     1     -23.978   8.573  -4.670  0.00  0.00    +0.000 C 
BRANCH   9  10
ATOM     10  C   UNL     1     -25.146   9.052  -5.356  0.00  0.00    +0.000 A 
ATOM     11  C   UNL     1     -26.354   8.477  -4.965  0.00  0.00    +0.000 A 
ATOM     12  C   UNL     1     -27.394   8.268  -5.855  0.00  0.00    +0.000 A 
ATOM     13  O   UNL     1     -28.680   7.925  -5.452  0.00  0.00    +0.000 OA
ATOM     14  C   UNL     1     -27.203   8.513  -7.210  0.00  0.00    +0.000 A 
ATOM     15  C   UNL     1     -25.962   8.968  -7.640  0.00  0.00    +0.000 A 
ATOM     16  O   UNL     1     -25.619   9.028  -8.994  0.00  0.00    +0.000 OA
ATOM     17  C   UNL     1     -25.188   9.565  -6.649  0.00  0.00    +0.000 A 
ENDBRANCH   9  10
ENDBRANCH   7   8
BRANCH   1  18
ATOM     18  O   UNL     1     -25.000   5.692  -2.079  0.00  0.00    +0.000 OA
BRANCH  18  19
ATOM     19  C   UNL     1     -25.563   5.158  -0.743  0.00  0.00    +0.000 C 
BRANCH  19  20
ATOM     20  C   UNL     1     -26.270   3.857  -1.472  0.00  0.00    +0.000 C 
BRANCH  20  22
ATOM     21  O   UNL     1     -25.810   1.845  -0.323  0.00  0.00    +0.000 OA
ATOM     22  S   UNL     1     -25.319   2.437  -1.008  0.00  0.00    +0.000 S 
ATOM     23  O   UNL     1     -24.957   1.588  -2.205  0.00  0.00    +0.000 OA
ATOM     24  O   UNL     1     -23.832   2.859  -0.321  0.00  0.00    +0.000 OA
ENDBRANCH  20  22
ENDBRANCH  19  20
BRANCH  19  25
ATOM     25  C   UNL     1     -26.937   6.060  -0.889  0.00  0.00    +0.000 C 
BRANCH  25  26
ATOM     26  N   UNL     1     -26.548   7.396  -0.448  0.00  0.00    +0.000 N 
ATOM     27  C   UNL     1     -26.949   8.499  -1.126  0.00  0.00    +0.000 A 
ATOM     28  C   UNL     1     -26.374   9.745  -0.910  0.00  0.00    +0.000 A 
ATOM     29  C   UNL     1     -25.820   9.974   0.325  0.00  0.00    +0.000 A 
ATOM     30  C   UNL     1     -25.567   8.884   1.144  0.00  0.00    +0.000 A 
ATOM     31  C   UNL     1     -26.020   7.621   0.781  0.00  0.00    +0.000 A 
ENDBRANCH  25  26
ENDBRANCH  19  25
ENDBRANCH  18  19
ENDBRANCH   1  18
TORSDOF 8
ENDMDL
MODEL 4
REMARK VINA RESULT:      -6.8      3.270      8.049
REMARK  Name = 
REMARK  8 active torsions:
REMARK  status: ('A' for Active; 'I' for Inactive)
REMARK    1  A    between atoms: S_2  and  C_5
REMARK    2  A    between atoms: C_5  and  C_6
REMARK    3  A    between atoms: C_6  and  C_7
REMARK    4  A    between atoms: C_6  and  O_14
REMARK    5  A    between atoms: C_7  and  N_8
REMARK    6  A    between atoms: O_14  and  C_15
REMARK    7  A    between atoms: C_21  and  C_22
REMARK    8  A    between atoms: C_23  and  C_24
REMARK                            x       y       z     vdW  Elec       q    Type
REMARK                         _______ _______ _______ _____ _____    ______ ____
ROOT
ATOM      1  C   UNL     1     -35.719  -3.375  -5.792  0.00  0.00    +0.000 A 
ATOM      2  C   UNL     1     -36.106  -4.138  -6.890  0.00  0.00    +0.000 A 
ATOM      3  C   UNL     1     -35.792  -5.492  -6.943  0.00  0.00    +0.000 A 
ATOM      4  O   UNL     1     -35.251  -6.074  -8.094  0.00  0.00    +0.000 OA
ATOM      5  C   UNL     1     -35.655  -6.105  -5.703  0.00  0.00    +0.000 A 
ATOM      6  C   UNL     1     -35.502  -5.348  -4.545  0.00  0.00    +0.000 A 
ATOM      7  C   UNL     1     -35.297  -3.972  -4.609  0.00  0.00    +0.000 A 
ENDROOT
BRANCH   7   8
ATOM      8  C   UNL     1     -34.124  -3.339  -3.979  0.00  0.00    +0.000 C 
ATOM      9  C   UNL     1     -32.901  -3.710  -4.075  0.00  0.00    +0.000 C 
BRANCH   9  10
ATOM     10  C   UNL     1     -32.032  -4.458  -3.211  0.00  0.00    +0.000 A 
ATOM     11  C   UNL     1     -30.859  -4.932  -3.796  0.00  0.00    +0.000 A 
ATOM     12  C   UNL     1     -30.280  -6.133  -3.423  0.00  0.00    +0.000 A 
ATOM     13  O   UNL     1     -28.999  -6.512  -3.812  0.00  0.00    +0.000 OA
ATOM     14  C   UNL     1     -30.940  -6.969  -2.529  0.00  0.00    +0.000 A 
ATOM     15  C   UNL     1     -32.174  -6.572  -2.027  0.00  0.00    +0.000 A 
ATOM     16  O   UNL     1     -32.998  -7.440  -1.305  0.00  0.00    +0.000 OA
ATOM     17  C   UNL     1     -32.417  -5.204  -2.101  0.00  0.00    +0.000 A 
ENDBRANCH   9  10
ENDBRANCH   7   8
BRANCH   1  18
ATOM     18  O   UNL     1     -36.065  -2.025  -5.670  0.00  0.00    +0.000 OA
BRANCH  18  19
ATOM     19  C   UNL     1     -37.409  -1.815  -6.401  0.00  0.00    +0.000 C 
BRANCH  19  20
ATOM     20  C   UNL     1     -37.070  -0.234  -6.733  0.00  0.00    +0.000 C 
BRANCH  20  22
ATOM     21  O   UNL     1     -38.841   0.592  -8.059  0.00  0.00    +0.000 OA
ATOM     22  S   UNL     1     -37.922   0.163  -8.234  0.00  0.00    +0.000 S 
ATOM     23  O   UNL     1     -37.113   1.094  -9.109  0.00  0.00    +0.000 OA
ATOM     24  O   UNL     1     -38.189  -1.201  -9.198  0.00  0.00    +0.000 OA
ENDBRANCH  20  22
ENDBRANCH  19  20
BRANCH  19  25
ATOM     25  C   UNL     1     -38.181  -1.414  -4.997  0.00  0.00    +0.000 C 
BRANCH  25  26
ATOM     26  N   UNL     1     -38.591  -2.693  -4.426  0.00  0.00    +0.000 N 
ATOM     27  C   UNL     1     -38.497  -2.924  -3.094  0.00  0.00    +0.000 A 
ATOM     28  C   UNL     1     -38.605  -4.202  -2.559  0.00  0.00    +0.000 A 
ATOM     29  C   UNL     1     -39.332  -5.121  -3.273  0.00  0.00    +0.000 A 
ATOM     30  C   UNL     1     -39.625  -4.841  -4.599  0.00  0.00    +0.000 A 
ATOM     31  C   UNL     1     -39.328  -3.590  -5.128  0.00  0.00    +0.000 A 
ENDBRANCH  25  26
ENDBRANCH  19  25
ENDBRANCH  18  19
ENDBRANCH   1  18
TORSDOF 8
ENDMDL
MODEL 5
REMARK VINA RESULT:      -6.7     15.874     17.799
REMARK  Name = 
REMARK  8 active torsions:
REMARK  status: ('A' for Active; 'I' for Inactive)
REMARK    1  A    between atoms: S_2  and  C_5
REMARK    2  A    between atoms: C_5  and  C_6
REMARK    3  A    between atoms: C_6  and  C_7
REMARK    4  A    between atoms: C_6  and  O_14
REMARK    5  A    between atoms: C_7  and  N_8
REMARK    6  A    between atoms: O_14  and  C_15
REMARK    7  A    between atoms: C_21  and  C_22
REMARK    8  A    between atoms: C_23  and  C_24
REMARK                            x       y       z     vdW  Elec       q    Type
REMARK                         _______ _______ _______ _____ _____    ______ ____
ROOT
ATOM      1  C   UNL     1     -23.164   6.579  -1.644  0.00  0.00    +0.000 A 
ATOM      2  C   UNL     1     -22.264   5.792  -0.932  0.00  0.00    +0.000 A 
ATOM      3  C   UNL     1     -21.156   6.375  -0.326  0.00  0.00    +0.000 A 
ATOM      4  O   UNL     1     -19.877   5.820  -0.449  0.00  0.00    +0.000 OA
ATOM      5  C   UNL     1     -21.323   7.708   0.029  0.00  0.00    +0.000 A 
ATOM      6  C   UNL     1     -22.370   8.462  -0.495  0.00  0.00    +0.000 A 
ATOM      7  C   UNL     1     -23.166   7.964  -1.524  0.00  0.00    +0.000 A 
ENDROOT
BRANCH   7   8
ATOM      8  C   UNL     1     -23.330   8.699  -2.791  0.00  0.00    +0.000 C 
ATOM      9  C   UNL     1     -22.679   9.736  -3.173  0.00  0.00    +0.000 C 
BRANCH   9  10
ATOM     10  C   UNL     1     -22.987  11.138  -3.182  0.00  0.00    +0.000 A 
ATOM     11  C   UNL     1     -22.256  11.912  -4.082  0.00  0.00    +0.000 A 
ATOM     12  C   UNL     1     -21.898  13.221  -3.809  0.00  0.00    +0.000 A 
ATOM     13  O   UNL     1     -21.385  14.084  -4.772  0.00  0.00    +0.000 OA
ATOM     14  C   UNL     1     -22.156  13.760  -2.553  0.00  0.00    +0.000 A 
ATOM     15  C   UNL     1     -22.774  12.963  -1.597  0.00  0.00    +0.000 A 
ATOM     16  O   UNL     1     -22.869  13.348  -0.257  0.00  0.00    +0.000 OA
ATOM     17  C   UNL     1     -23.479  11.879  -2.112  0.00  0.00    +0.000 A 
ENDBRANCH   9  10
ENDBRANCH   7   8
BRANCH   1  18
ATOM     18  O   UNL     1     -24.322   6.045  -2.220  0.00  0.00    +0.000 OA
BRANCH  18  19
ATOM     19  C   UNL     1     -25.172   5.432  -1.084  0.00  0.00    +0.000 C 
BRANCH  19  20
ATOM     20  C   UNL     1     -25.694   4.193  -2.041  0.00  0.00    +0.000 C 
BRANCH  20  22
ATOM     21  O   UNL     1     -25.011   1.935  -1.922  0.00  0.00    +0.000 OA
ATOM     22  S   UNL     1     -25.189   2.692  -1.247  0.00  0.00    +0.000 S 
ATOM     23  O   UNL     1     -23.947   2.892  -0.408  0.00  0.00    +0.000 OA
ATOM     24  O   UNL     1     -26.350   2.121  -0.158  0.00  0.00    +0.000 OA
ENDBRANCH  20  22
ENDBRANCH  19  20
BRANCH  19  25
ATOM     25  C   UNL     1     -26.478   6.362  -1.475  0.00  0.00    +0.000 C 
BRANCH  25  26
ATOM     26  N   UNL     1     -26.317   7.575  -0.680  0.00  0.00    +0.000 N 
ATOM     27  C   UNL     1     -26.712   8.780  -1.159  0.00  0.00    +0.000 A 
ATOM     28  C   UNL     1     -26.320   9.973  -0.563  0.00  0.00    +0.000 A 
ATOM     29  C   UNL     1     -26.014   9.934   0.774  0.00  0.00    +0.000 A 
ATOM     30  C   UNL     1     -25.789   8.698   1.362  0.00  0.00    +0.000 A 
ATOM     31  C   UNL     1     -26.035   7.533   0.646  0.00  0.00    +0.000 A 
ENDBRANCH  25  26
ENDBRANCH  19  25
ENDBRANCH  18  19
ENDBRANCH   1  18
TORSDOF 8
ENDMDL
MODEL 6
REMARK VINA RESULT:      -6.7      4.185      7.690
REMARK  Name = 
REMARK  8 active torsions:
REMARK  status: ('A' for Active; 'I' for Inactive)
REMARK    1  A    between atoms: S_2  and  C_5
REMARK    2  A    between atoms: C_5  and  C_6
REMARK    3  A    between atoms: C_6  and  C_7
REMARK    4  A    between atoms: C_6  and  O_14
REMARK    5  A    between atoms: C_7  and  N_8
REMARK    6  A    between atoms: O_14  and  C_15
REMARK    7  A    between atoms: C_21  and  C_22
REMARK    8  A    between atoms: C_23  and  C_24
REMARK                            x       y       z     vdW  Elec       q    Type
REMARK                         _______ _______ _______ _____ _____    ______ ____
ROOT
ATOM      1  C   UNL     1     -35.561  -5.477  -6.498  0.00  0.00    +0.000 A 
ATOM      2  C   UNL     1     -35.967  -4.150  -6.605  0.00  0.00    +0.000 A 
ATOM      3  C   UNL     1     -35.113  -3.127  -6.208  0.00  0.00    +0.000 A 
ATOM      4  O   UNL     1     -35.559  -2.068  -5.409  0.00  0.00    +0.000 OA
ATOM      5  C   UNL     1     -33.759  -3.434  -6.293  0.00  0.00    +0.000 A 
ATOM      6  C   UNL     1     -33.333  -4.752  -6.426  0.00  0.00    +0.000 A 
ATOM      7  C   UNL     1     -34.228  -5.812  -6.294  0.00  0.00    +0.000 A 
ENDROOT
BRANCH   7   8
ATOM      8  C   UNL     1     -34.000  -6.890  -5.315  0.00  0.00    +0.000 C 
ATOM      9  C   UNL     1     -33.828  -6.764  -4.051  0.00  0.00    +0.000 C 
BRANCH   9  10
ATOM     10  C   UNL     1     -32.661  -6.772  -3.215  0.00  0.00    +0.000 A 
ATOM     11  C   UNL     1     -32.771  -6.070  -2.016  0.00  0.00    +0.000 A 
ATOM     12  C   UNL     1     -31.697  -5.407  -1.446  0.00  0.00    +0.000 A 
ATOM     13  O   UNL     1     -31.716  -4.908  -0.148  0.00  0.00    +0.000 OA
ATOM     14  C   UNL     1     -30.495  -5.317  -2.139  0.00  0.00    +0.000 A 
ATOM     15  C   UNL     1     -30.401  -5.904  -3.396  0.00  0.00    +0.000 A 
ATOM     16  O   UNL     1     -29.315  -5.674  -4.245  0.00  0.00    +0.000 OA
ATOM     17  C   UNL     1     -31.342  -6.899  -3.644  0.00  0.00    +0.000 A 
ENDBRANCH   9  10
ENDBRANCH   7   8
BRANCH   1  18
ATOM     18  O   UNL     1     -36.364  -6.534  -6.940  0.00  0.00    +0.000 OA
BRANCH  18  19
ATOM     19  C   UNL     1     -36.313  -6.551  -8.484  0.00  0.00    +0.000 C 
BRANCH  19  20
ATOM     20  C   UNL     1     -37.954  -6.664  -8.614  0.00  0.00    +0.000 C 
BRANCH  20  22
ATOM     21  O   UNL     1     -37.938  -5.641 -10.743  0.00  0.00    +0.000 OA
ATOM     22  S   UNL     1     -38.445  -5.502  -9.857  0.00  0.00    +0.000 S 
ATOM     23  O   UNL     1     -39.929  -5.572 -10.136  0.00  0.00    +0.000 OA
ATOM     24  O   UNL     1     -38.176  -3.902  -9.381  0.00  0.00    +0.000 OA
ENDBRANCH  20  22
ENDBRANCH  19  20
BRANCH  19  25
ATOM     25  C   UNL     1     -36.139  -8.192  -8.522  0.00  0.00    +0.000 C 
BRANCH  25  26
ATOM     26  N   UNL     1     -35.819  -8.495  -9.914  0.00  0.00    +0.000 N 
ATOM     27  C   UNL     1     -35.013  -7.681 -10.637  0.00  0.00    +0.000 A 
ATOM     28  C   UNL     1     -34.918  -7.778 -12.020  0.00  0.00    +0.000 A 
ATOM     29  C   UNL     1     -35.189  -9.000 -12.582  0.00  0.00    +0.000 A 
ATOM     30  C   UNL     1     -35.847  -9.947 -11.812  0.00  0.00    +0.000 A 
ATOM     31  C   UNL     1     -36.070  -9.711 -10.460  0.00  0.00    +0.000 A 
ENDBRANCH  25  26
ENDBRANCH  19  25
ENDBRANCH  18  19
ENDBRANCH   1  18
TORSDOF 8
ENDMDL
MODEL 7
REMARK VINA RESULT:      -6.7     13.693     15.665
REMARK  Name = 
REMARK  8 active torsions:
REMARK  status: ('A' for Active; 'I' for Inactive)
REMARK    1  A    between atoms: S_2  and  C_5
REMARK    2  A    between atoms: C_5  and  C_6
REMARK    3  A    between atoms: C_6  and  C_7
REMARK    4  A    between atoms: C_6  and  O_14
REMARK    5  A    between atoms: C_7  and  N_8
REMARK    6  A    between atoms: O_14  and  C_15
REMARK    7  A    between atoms: C_21  and  C_22
REMARK    8  A    between atoms: C_23  and  C_24
REMARK                            x       y       z     vdW  Elec       q    Type
REMARK                         _______ _______ _______ _____ _____    ______ ____
ROOT
ATOM      1  C   UNL     1     -24.411   6.850  -1.159  0.00  0.00    +0.000 A 
ATOM      2  C   UNL     1     -23.451   6.616  -0.179  0.00  0.00    +0.000 A 
ATOM      3  C   UNL     1     -22.153   7.084  -0.349  0.00  0.00    +0.000 A 
ATOM      4  O   UNL     1     -21.042   6.269  -0.101  0.00  0.00    +0.000 OA
ATOM      5  C   UNL     1     -22.042   8.212  -1.154  0.00  0.00    +0.000 A 
ATOM      6  C   UNL     1     -23.092   8.606  -1.979  0.00  0.00    +0.000 A 
ATOM      7  C   UNL     1     -24.205   7.789  -2.163  0.00  0.00    +0.000 A 
ENDROOT
BRANCH   7   8
ATOM      8  C   UNL     1     -24.631   7.364  -3.508  0.00  0.00    +0.000 C 
ATOM      9  C   UNL     1     -24.008   7.554  -4.613  0.00  0.00    +0.000 C 
BRANCH   9  10
ATOM     10  C   UNL     1     -24.164   8.506  -5.676  0.00  0.00    +0.000 A 
ATOM     11  C   UNL     1     -24.797   9.699  -5.330  0.00  0.00    +0.000 A 
ATOM     12  C   UNL     1     -25.608  10.388  -6.215  0.00  0.00    +0.000 A 
ATOM     13  O   UNL     1     -26.053  11.686  -5.984  0.00  0.00    +0.000 OA
ATOM     14  C   UNL     1     -25.918   9.826  -7.449  0.00  0.00    +0.000 A 
ATOM     15  C   UNL     1     -25.398   8.576  -7.765  0.00  0.00    +0.000 A 
ATOM     16  O   UNL     1     -25.832   7.849  -8.876  0.00  0.00    +0.000 OA
ATOM     17  C   UNL     1     -24.270   8.215  -7.032  0.00  0.00    +0.000 A 
ENDBRANCH   9  10
ENDBRANCH   7   8
BRANCH   1  18
ATOM     18  O   UNL     1     -25.742   6.450  -1.002  0.00  0.00    +0.000 OA
BRANCH  18  19
ATOM     19  C   UNL     1     -25.754   5.192  -0.106  0.00  0.00    +0.000 C 
BRANCH  19  20
ATOM     20  C   UNL     1     -25.899   4.178  -1.400  0.00  0.00    +0.000 C 
BRANCH  20  22
ATOM     21  O   UNL     1     -24.110   2.836  -0.640  0.00  0.00    +0.000 OA
ATOM     22  S   UNL     1     -25.075   2.673  -0.960  0.00  0.00    +0.000 S 
ATOM     23  O   UNL     1     -25.820   1.920   0.119  0.00  0.00    +0.000 OA
ATOM     24  O   UNL     1     -24.990   1.587  -2.254  0.00  0.00    +0.000 OA
ENDBRANCH  20  22
ENDBRANCH  19  20
BRANCH  19  25
ATOM     25  C   UNL     1     -27.391   5.270   0.091  0.00  0.00    +0.000 C 
BRANCH  25  26
ATOM     26  N   UNL     1     -27.586   5.297   1.537  0.00  0.00    +0.000 N 
ATOM     27  C   UNL     1     -27.949   6.439   2.170  0.00  0.00    +0.000 A 
ATOM     28  C   UNL     1     -27.866   6.574   3.551  0.00  0.00    +0.000 A 
ATOM     29  C   UNL     1     -27.951   5.426   4.298  0.00  0.00    +0.000 A 
ATOM     30  C   UNL     1     -27.778   4.209   3.656  0.00  0.00    +0.000 A 
ATOM     31  C   UNL     1     -27.690   4.160   2.269  0.00  0.00    +0.000 A 
ENDBRANCH  25  26
ENDBRANCH  19  25
ENDBRANCH  18  19
ENDBRANCH   1  18
TORSDOF 8
ENDMDL
MODEL 8
REMARK VINA RESULT:      -6.5     15.114     17.720
REMARK  Name = 
REMARK  8 active torsions:
REMARK  status: ('A' for Active; 'I' for Inactive)
REMARK    1  A    between atoms: S_2  and  C_5
REMARK    2  A    between atoms: C_5  and  C_6
REMARK    3  A    between atoms: C_6  and  C_7
REMARK    4  A    between atoms: C_6  and  O_14
REMARK    5  A    between atoms: C_7  and  N_8
REMARK    6  A    between atoms: O_14  and  C_15
REMARK    7  A    between atoms: C_21  and  C_22
REMARK    8  A    between atoms: C_23  and  C_24
REMARK                            x       y       z     vdW  Elec       q    Type
REMARK                         _______ _______ _______ _____ _____    ______ ____
ROOT
ATOM      1  C   UNL     1     -25.803   5.667  -0.557  0.00  0.00    +0.000 A 
ATOM      2  C   UNL     1     -25.767   4.831  -1.668  0.00  0.00    +0.000 A 
ATOM      3  C   UNL     1     -25.842   3.452  -1.504  0.00  0.00    +0.000 A 
ATOM      4  O   UNL     1     -24.970   2.587  -2.175  0.00  0.00    +0.000 OA
ATOM      5  C   UNL     1     -26.517   3.038  -0.362  0.00  0.00    +0.000 A 
ATOM      6  C   UNL     1     -26.776   3.928   0.676  0.00  0.00    +0.000 A 
ATOM      7  C   UNL     1     -26.211   5.201   0.688  0.00  0.00    +0.000 A 
ENDROOT
BRANCH   7   8
ATOM      8  C   UNL     1     -25.399   5.670   1.825  0.00  0.00    +0.000 C 
ATOM      9  C   UNL     1     -25.826   6.063   2.969  0.00  0.00    +0.000 C 
BRANCH   9  10
ATOM     10  C   UNL     1     -26.037   7.362   3.543  0.00  0.00    +0.000 A 
ATOM     11  C   UNL     1     -25.717   8.444   2.725  0.00  0.00    +0.000 A 
ATOM     12  C   UNL     1     -25.212   9.630   3.232  0.00  0.00    +0.000 A 
ATOM     13  O   UNL     1     -25.112  10.795   2.479  0.00  0.00    +0.000 OA
ATOM     14  C   UNL     1     -24.886   9.720   4.581  0.00  0.00    +0.000 A 
ATOM     15  C   UNL     1     -25.080   8.609   5.393  0.00  0.00    +0.000 A 
ATOM     16  O   UNL     1     -24.580   8.543   6.696  0.00  0.00    +0.000 OA
ATOM     17  C   UNL     1     -25.991   7.680   4.897  0.00  0.00    +0.000 A 
ENDBRANCH   9  10
ENDBRANCH   7   8
BRANCH   1  18
ATOM     18  O   UNL     1     -25.791   7.061  -0.678  0.00  0.00    +0.000 OA
BRANCH  18  19
ATOM     19  C   UNL     1     -24.646   7.440  -1.643  0.00  0.00    +0.000 C 
BRANCH  19  20
ATOM     20  C   UNL     1     -24.041   8.571  -0.605  0.00  0.00    +0.000 C 
BRANCH  20  22
ATOM     21  O   UNL     1     -21.807   8.317  -1.326  0.00  0.00    +0.000 OA
ATOM     22  S   UNL     1     -22.312   8.230  -0.433  0.00  0.00    +0.000 S 
ATOM     23  O   UNL     1     -21.658   9.140   0.582  0.00  0.00    +0.000 OA
ATOM     24  O   UNL     1     -22.023   6.668   0.148  0.00  0.00    +0.000 OA
ENDBRANCH  20  22
ENDBRANCH  19  20
BRANCH  19  25
ATOM     25  C   UNL     1     -25.581   8.561  -2.413  0.00  0.00    +0.000 C 
BRANCH  25  26
ATOM     26  N   UNL     1     -25.064   8.596  -3.778  0.00  0.00    +0.000 N 
ATOM     27  C   UNL     1     -25.047   9.751  -4.488  0.00  0.00    +0.000 A 
ATOM     28  C   UNL     1     -24.835   9.767  -5.861  0.00  0.00    +0.000 A 
ATOM     29  C   UNL     1     -24.116   8.728  -6.396  0.00  0.00    +0.000 A 
ATOM     30  C   UNL     1     -23.936   7.588  -5.628  0.00  0.00    +0.000 A 
ATOM     31  C   UNL     1     -24.335   7.577  -4.296  0.00  0.00    +0.000 A 
ENDBRANCH  25  26
ENDBRANCH  19  25
ENDBRANCH  18  19
ENDBRANCH   1  18
TORSDOF 8
ENDMDL
MODEL 9
REMARK VINA RESULT:      -6.5      3.721      6.134
REMARK  Name = 
REMARK  8 active torsions:
REMARK  status: ('A' for Active; 'I' for Inactive)
REMARK    1  A    between atoms: S_2  and  C_5
REMARK    2  A    between atoms: C_5  and  C_6
REMARK    3  A    between atoms: C_6  and  C_7
REMARK    4  A    between atoms: C_6  and  O_14
REMARK    5  A    between atoms: C_7  and  N_8
REMARK    6  A    between atoms: O_14  and  C_15
REMARK    7  A    between atoms: C_21  and  C_22
REMARK    8  A    between atoms: C_23  and  C_24
REMARK                            x       y       z     vdW  Elec       q    Type
REMARK                         _______ _______ _______ _____ _____    ______ ____
ROOT
ATOM      1  C   UNL     1     -34.685  -5.875  -5.371  0.00  0.00    +0.000 A 
ATOM      2  C   UNL     1     -34.966  -6.325  -4.085  0.00  0.00    +0.000 A 
ATOM      3  C   UNL     1     -35.848  -7.383  -3.894  0.00  0.00    +0.000 A 
ATOM      4  O   UNL     1     -36.861  -7.327  -2.931  0.00  0.00    +0.000 OA
ATOM      5  C   UNL     1     -35.926  -8.274  -4.959  0.00  0.00    +0.000 A 
ATOM      6  C   UNL     1     -35.431  -7.931  -6.214  0.00  0.00    +0.000 A 
ATOM      7  C   UNL     1     -35.014  -6.631  -6.490  0.00  0.00    +0.000 A 
ENDROOT
BRANCH   7   8
ATOM      8  C   UNL     1     -35.585  -5.865  -7.612  0.00  0.00    +0.000 C 
ATOM      9  C   UNL     1     -36.666  -6.120  -8.253  0.00  0.00    +0.000 C 
BRANCH   9  10
ATOM     10  C   UNL     1     -36.931  -6.746  -9.518  0.00  0.00    +0.000 A 
ATOM     11  C   UNL     1     -35.859  -7.426 -10.093  0.00  0.00    +0.000 A 
ATOM     12  C   UNL     1     -35.673  -7.489 -11.464  0.00  0.00    +0.000 A 
ATOM     13  O   UNL     1     -34.762  -8.349 -12.067  0.00  0.00    +0.000 OA
ATOM     14  C   UNL     1     -36.497  -6.751 -12.307  0.00  0.00    +0.000 A 
ATOM     15  C   UNL     1     -37.497  -5.964 -11.746  0.00  0.00    +0.000 A 
ATOM     16  O   UNL     1     -38.218  -5.032 -12.496  0.00  0.00    +0.000 OA
ATOM     17  C   UNL     1     -37.873  -6.335 -10.457  0.00  0.00    +0.000 A 
ENDBRANCH   9  10
ENDBRANCH   7   8
BRANCH   1  18
ATOM     18  O   UNL     1     -33.759  -4.854  -5.613  0.00  0.00    +0.000 OA
BRANCH  18  19
ATOM     19  C   UNL     1     -34.076  -3.693  -4.644  0.00  0.00    +0.000 C 
BRANCH  19  20
ATOM     20  C   UNL     1     -34.525  -2.688  -5.874  0.00  0.00    +0.000 C 
BRANCH  20  22
ATOM     21  O   UNL     1     -36.862  -3.021  -5.966  0.00  0.00    +0.000 OA
ATOM     22  S   UNL     1     -36.230  -2.291  -5.606  0.00  0.00    +0.000 S 
ATOM     23  O   UNL     1     -36.532  -2.071  -4.141  0.00  0.00    +0.000 OA
ATOM     24  O   UNL     1     -36.675  -0.841  -6.355  0.00  0.00    +0.000 OA
ENDBRANCH  20  22
ENDBRANCH  19  20
BRANCH  19  25
ATOM     25  C   UNL     1     -32.518  -3.147  -4.690  0.00  0.00    +0.000 C 
BRANCH  25  26
ATOM     26  N   UNL     1     -31.775  -4.089  -3.858  0.00  0.00    +0.000 N 
ATOM     27  C   UNL     1     -30.557  -4.545  -4.240  0.00  0.00    +0.000 A 
ATOM     28  C   UNL     1     -29.957  -5.640  -3.629  0.00  0.00    +0.000 A 
ATOM     29  C   UNL     1     -30.313  -5.906  -2.331  0.00  0.00    +0.000 A 
ATOM     30  C   UNL     1     -31.456  -5.304  -1.825  0.00  0.00    +0.000 A 
ATOM     31  C   UNL     1     -32.117  -4.333  -2.569  0.00  0.00    +0.000 A 
ENDBRANCH  25  26
ENDBRANCH  19  25
ENDBRANCH  18  19
ENDBRANCH   1  18
TORSDOF 8
ENDMDL
MODEL 10
REMARK VINA RESULT:      -6.4     14.958     17.901
REMARK  Name = 
REMARK  8 active torsions:
REMARK  status: ('A' for Active; 'I' for Inactive)
REMARK    1  A    between atoms: S_2  and  C_5
REMARK    2  A    between atoms: C_5  and  C_6
REMARK    3  A    between atoms: C_6  and  C_7
REMARK    4  A    between atoms: C_6  and  O_14
REMARK    5  A    between atoms: C_7  and  N_8
REMARK    6  A    between atoms: O_14  and  C_15
REMARK    7  A    between atoms: C_21  and  C_22
REMARK    8  A    between atoms: C_23  and  C_24
REMARK                            x       y       z     vdW  Elec       q    Type
REMARK                         _______ _______ _______ _____ _____    ______ ____
ROOT
ATOM      1  C   UNL     1     -24.717   9.633  -6.046  0.00  0.00    +0.000 A 
ATOM      2  C   UNL     1     -25.144  10.957  -6.078  0.00  0.00    +0.000 A 
ATOM      3  C   UNL     1     -24.855  11.808  -5.017  0.00  0.00    +0.000 A 
ATOM      4  O   UNL     1     -25.833  12.639  -4.458  0.00  0.00    +0.000 OA
ATOM      5  C   UNL     1     -23.707  11.480  -4.305  0.00  0.00    +0.000 A 
ATOM      6  C   UNL     1     -23.119  10.226  -4.437  0.00  0.00    +0.000 A 
ATOM      7  C   UNL     1     -23.757   9.204  -5.136  0.00  0.00    +0.000 A 
ENDROOT
BRANCH   7   8
ATOM      8  C   UNL     1     -24.036   7.900  -4.508  0.00  0.00    +0.000 C 
ATOM      9  C   UNL     1     -24.630   7.692  -3.391  0.00  0.00    +0.000 C 
BRANCH   9  10
ATOM     10  C   UNL     1     -24.156   7.391  -2.069  0.00  0.00    +0.000 A 
ATOM     11  C   UNL     1     -22.913   7.927  -1.736  0.00  0.00    +0.000 A 
ATOM     12  C   UNL     1     -22.026   7.271  -0.898  0.00  0.00    +0.000 A 
ATOM     13  O   UNL     1     -20.897   7.880  -0.363  0.00  0.00    +0.000 OA
ATOM     14  C   UNL     1     -22.310   5.980  -0.467  0.00  0.00    +0.000 A 
ATOM     15  C   UNL     1     -23.490   5.377  -0.890  0.00  0.00    +0.000 A 
ATOM     16  O   UNL     1     -23.744   4.018  -0.687  0.00  0.00    +0.000 OA
ATOM     17  C   UNL     1     -24.474   6.263  -1.318  0.00  0.00    +0.000 A 
ENDBRANCH   9  10
ENDBRANCH   7   8
BRANCH   1  18
ATOM     18  O   UNL     1     -24.933   8.759  -7.117  0.00  0.00    +0.000 OA
BRANCH  18  19
ATOM     19  C   UNL     1     -26.266   9.158  -7.789  0.00  0.00    +0.000 C 
BRANCH  19  20
ATOM     20  C   UNL     1     -27.144   8.149  -6.822  0.00  0.00    +0.000 C 
BRANCH  20  22
ATOM     21  O   UNL     1     -29.263   8.572  -5.867  0.00  0.00    +0.000 OA
ATOM     22  S   UNL     1     -28.781   8.821  -6.743  0.00  0.00    +0.000 S 
ATOM     23  O   UNL     1     -28.777  10.327  -6.880  0.00  0.00    +0.000 OA
ATOM     24  O   UNL     1     -29.757   8.281  -8.014  0.00  0.00    +0.000 OA
ENDBRANCH  20  22
ENDBRANCH  19  20
BRANCH  19  25
ATOM     25  C   UNL     1     -26.101   7.996  -8.950  0.00  0.00    +0.000 C 
BRANCH  25  26
ATOM     26  N   UNL     1     -26.995   8.419 -10.023  0.00  0.00    +0.000 N 
ATOM     27  C   UNL     1     -27.288   9.729 -10.210  0.00  0.00    +0.000 A 
ATOM     28  C   UNL     1     -28.339  10.140 -11.022  0.00  0.00    +0.000 A 
ATOM     29  C   UNL     1     -28.714   9.294 -12.036  0.00  0.00    +0.000 A 
ATOM     30  C   UNL     1     -28.275   7.980 -11.993  0.00  0.00    +0.000 A 
ATOM     31  C   UNL     1     -27.347   7.588 -11.035  0.00  0.00    +0.000 A 
ENDBRANCH  25  26
ENDBRANCH  19  25
ENDBRANCH  18  19
ENDBRANCH   1  18
TORSDOF 8
ENDMDL
