MODEL 1
REMARK VINA RESULT:      -7.1      0.000      0.000
REMARK  Name = 
REMARK  8 active torsions:
REMARK  status: ('A' for Active; 'I' for Inactive)
REMARK    1  A    between atoms: S_2  and  C_5
REMARK    2  A    between atoms: C_5  and  C_6
REMARK    3  A    between atoms: C_6  and  C_7
REMARK    4  A    between atoms: C_6  and  O_14
REMARK    5  A    between atoms: C_7  and  N_8
REMARK    6  A    between atoms: O_14  and  C_15
REMARK    7  A    between atoms: C_21  and  C_22
REMARK    8  A    between atoms: C_23  and  C_24
REMARK                            x       y       z     vdW  Elec       q    Type
REMARK                         _______ _______ _______ _____ _____    ______ ____
ROOT
ATOM      1  C   UNL     1     -35.107  -4.289  -7.322  0.00  0.00    +0.000 A 
ATOM      2  C   UNL     1     -36.293  -3.558  -7.338  0.00  0.00    +0.000 A 
ATOM      3  C   UNL     1     -36.432  -2.493  -6.453  0.00  0.00    +0.000 A 
ATOM      4  O   UNL     1     -37.356  -1.472  -6.703  0.00  0.00    +0.000 OA
ATOM      5  C   UNL     1     -35.407  -2.258  -5.542  0.00  0.00    +0.000 A 
ATOM      6  C   UNL     1     -34.140  -2.770  -5.798  0.00  0.00    +0.000 A 
ATOM      7  C   UNL     1     -33.946  -3.771  -6.749  0.00  0.00    +0.000 A 
ENDROOT
BRANCH   7   8
ATOM      8  C   UNL     1     -32.721  -4.005  -7.416  0.00  0.00    +0.000 C 
ATOM      9  C   UNL     1     -31.529  -4.166  -7.283  0.00  0.00    +0.000 C 
BRANCH   9  10
ATOM     10  C   UNL     1     -30.459  -4.527  -6.447  0.00  0.00    +0.000 A 
ATOM     11  C   UNL     1     -30.685  -5.460  -5.438  0.00  0.00    +0.000 A 
ATOM     12  C   UNL     1     -29.890  -5.507  -4.295  0.00  0.00    +0.000 A 
ATOM     13  O   UNL     1     -29.965  -6.540  -3.371  0.00  0.00    +0.000 OA
ATOM     14  C   UNL     1     -28.911  -4.535  -4.109  0.00  0.00    +0.000 A 
ATOM     15  C   UNL     1     -28.613  -3.647  -5.135  0.00  0.00    +0.000 A 
ATOM     16  O   UNL     1     -27.762  -2.565  -4.920  0.00  0.00    +0.000 OA
ATOM     17  C   UNL     1     -29.215  -3.906  -6.352  0.00  0.00    +0.000 A 
ENDBRANCH   9  10
ENDBRANCH   7   8
BRANCH   1  18
ATOM     18  O   UNL     1     -35.074  -5.637  -7.701  0.00  0.00    +0.000 OA
BRANCH  18  19
ATOM     19  C   UNL     1     -36.337  -6.326  -7.144  0.00  0.00    +0.000 C 
BRANCH  19  20
ATOM     20  C   UNL     1     -36.676  -7.015  -8.600  0.00  0.00    +0.000 C 
BRANCH  20  22
ATOM     21  O   UNL     1     -38.959  -6.834  -9.755  0.00  0.00    +0.000 OA
ATOM     22  S   UNL     1     -38.454  -7.195  -8.615  0.00  0.00    +0.000 S 
ATOM     23  O   UNL     1     -38.743  -8.632  -8.257  0.00  0.00    +0.000 OA
ATOM     24  O   UNL     1     -39.137  -6.249  -7.391  0.00  0.00    +0.000 OA
ENDBRANCH  20  22
ENDBRANCH  19  20
BRANCH  19  25
ATOM     25  C   UNL     1     -35.479  -7.641  -6.648  0.00  0.00    +0.000 C 
BRANCH  25  26
ATOM     26  N   UNL     1     -35.190  -7.220  -5.278  0.00  0.00    +0.000 N 
ATOM     27  C   UNL     1     -33.936  -7.295  -4.765  0.00  0.00    +0.000 A 
ATOM     28  C   UNL     1     -33.585  -6.587  -3.621  0.00  0.00    +0.000 A 
ATOM     29  C   UNL     1     -34.349  -5.452  -3.376  0.00  0.00    +0.000 A 
ATOM     30  C   UNL     1     -35.682  -5.481  -3.766  0.00  0.00    +0.000 A 
ATOM     31  C   UNL     1     -36.093  -6.581  -4.509  0.00  0.00    +0.000 A 
ENDBRANCH  25  26
ENDBRANCH  19  25
ENDBRANCH  18  19
ENDBRANCH   1  18
TORSDOF 8
ENDMDL
MODEL 2
REMARK VINA RESULT:      -6.7      3.037      7.192
REMARK  Name = 
REMARK  8 active torsions:
REMARK  status: ('A' for Active; 'I' for Inactive)
REMARK    1  A    between atoms: S_2  and  C_5
REMARK    2  A    between atoms: C_5  and  C_6
REMARK    3  A    between atoms: C_6  and  C_7
REMARK    4  A    between atoms: C_6  and  O_14
REMARK    5  A    between atoms: C_7  and  N_8
REMARK    6  A    between atoms: O_14  and  C_15
REMARK    7  A    between atoms: C_21  and  C_22
REMARK    8  A    between atoms: C_23  and  C_24
REMARK                            x       y       z     vdW  Elec       q    Type
REMARK                         _______ _______ _______ _____ _____    ______ ____
ROOT
ATOM      1  C   UNL     1     -34.486  -3.874  -6.182  0.00  0.00    +0.000 A 
ATOM      2  C   UNL     1     -34.477  -4.727  -7.285  0.00  0.00    +0.000 A 
ATOM      3  C   UNL     1     -35.341  -5.819  -7.290  0.00  0.00    +0.000 A 
ATOM      4  O   UNL     1     -35.707  -6.433  -8.493  0.00  0.00    +0.000 OA
ATOM      5  C   UNL     1     -36.117  -6.048  -6.159  0.00  0.00    +0.000 A 
ATOM      6  C   UNL     1     -36.344  -5.005  -5.268  0.00  0.00    +0.000 A 
ATOM      7  C   UNL     1     -35.562  -3.850  -5.295  0.00  0.00    +0.000 A 
ENDROOT
BRANCH   7   8
ATOM      8  C   UNL     1     -35.987  -2.593  -4.807  0.00  0.00    +0.000 C 
ATOM      9  C   UNL     1     -36.474  -1.525  -5.097  0.00  0.00    +0.000 C 
BRANCH   9  10
ATOM     10  C   UNL     1     -37.243  -0.769  -5.997  0.00  0.00    +0.000 A 
ATOM     11  C   UNL     1     -37.568  -1.328  -7.232  0.00  0.00    +0.000 A 
ATOM     12  C   UNL     1     -37.863  -0.534  -8.337  0.00  0.00    +0.000 A 
ATOM     13  O   UNL     1     -38.377  -1.054  -9.517  0.00  0.00    +0.000 OA
ATOM     14  C   UNL     1     -37.734   0.848  -8.235  0.00  0.00    +0.000 A 
ATOM     15  C   UNL     1     -37.492   1.431  -6.998  0.00  0.00    +0.000 A 
ATOM     16  O   UNL     1     -37.192   2.788  -6.893  0.00  0.00    +0.000 OA
ATOM     17  C   UNL     1     -37.561   0.586  -5.908  0.00  0.00    +0.000 A 
ENDBRANCH   9  10
ENDBRANCH   7   8
BRANCH   1  18
ATOM     18  O   UNL     1     -33.347  -3.151  -5.809  0.00  0.00    +0.000 OA
BRANCH  18  19
ATOM     19  C   UNL     1     -32.353  -4.125  -5.143  0.00  0.00    +0.000 C 
BRANCH  19  20
ATOM     20  C   UNL     1     -31.063  -3.198  -5.574  0.00  0.00    +0.000 C 
BRANCH  20  22
ATOM     21  O   UNL     1     -28.715  -3.849  -4.773  0.00  0.00    +0.000 OA
ATOM     22  S   UNL     1     -29.666  -4.312  -5.525  0.00  0.00    +0.000 S 
ATOM     23  O   UNL     1     -30.200  -5.647  -5.067  0.00  0.00    +0.000 OA
ATOM     24  O   UNL     1     -29.064  -4.545  -7.086  0.00  0.00    +0.000 OA
ENDBRANCH  20  22
ENDBRANCH  19  20
BRANCH  19  25
ATOM     25  C   UNL     1     -32.491  -3.370  -3.685  0.00  0.00    +0.000 C 
BRANCH  25  26
ATOM     26  N   UNL     1     -32.526  -4.549  -2.822  0.00  0.00    +0.000 N 
ATOM     27  C   UNL     1     -33.425  -5.545  -3.021  0.00  0.00    +0.000 A 
ATOM     28  C   UNL     1     -33.245  -6.799  -2.449  0.00  0.00    +0.000 A 
ATOM     29  C   UNL     1     -31.926  -7.129  -2.160  0.00  0.00    +0.000 A 
ATOM     30  C   UNL     1     -31.074  -6.095  -1.793  0.00  0.00    +0.000 A 
ATOM     31  C   UNL     1     -31.575  -4.802  -1.902  0.00  0.00    +0.000 A 
ENDBRANCH  25  26
ENDBRANCH  19  25
ENDBRANCH  18  19
ENDBRANCH   1  18
TORSDOF 8
ENDMDL
MODEL 3
REMARK VINA RESULT:      -6.4     26.697     30.720
REMARK  Name = 
REMARK  8 active torsions:
REMARK  status: ('A' for Active; 'I' for Inactive)
REMARK    1  A    between atoms: S_2  and  C_5
REMARK    2  A    between atoms: C_5  and  C_6
REMARK    3  A    between atoms: C_6  and  C_7
REMARK    4  A    between atoms: C_6  and  O_14
REMARK    5  A    between atoms: C_7  and  N_8
REMARK    6  A    between atoms: O_14  and  C_15
REMARK    7  A    between atoms: C_21  and  C_22
REMARK    8  A    between atoms: C_23  and  C_24
REMARK                            x       y       z     vdW  Elec       q    Type
REMARK                         _______ _______ _______ _____ _____    ______ ____
ROOT
ATOM      1  C   UNL     1     -12.946  17.559   0.197  0.00  0.00    +0.000 A 
ATOM      2  C   UNL     1     -12.477  18.847  -0.053  0.00  0.00    +0.000 A 
ATOM      3  C   UNL     1     -12.298  19.712   1.023  0.00  0.00    +0.000 A 
ATOM      4  O   UNL     1     -11.440  20.813   0.918  0.00  0.00    +0.000 OA
ATOM      5  C   UNL     1     -12.668  19.272   2.289  0.00  0.00    +0.000 A 
ATOM      6  C   UNL     1     -12.787  17.907   2.526  0.00  0.00    +0.000 A 
ATOM      7  C   UNL     1     -12.872  16.997   1.472  0.00  0.00    +0.000 A 
ENDROOT
BRANCH   7   8
ATOM      8  C   UNL     1     -12.512  15.633   1.571  0.00  0.00    +0.000 C 
ATOM      9  C   UNL     1     -12.846  14.541   1.970  0.00  0.00    +0.000 C 
BRANCH   9  10
ATOM     10  C   UNL     1     -13.885  13.683   2.369  0.00  0.00    +0.000 A 
ATOM     11  C   UNL     1     -13.577  12.358   2.673  0.00  0.00    +0.000 A 
ATOM     12  C   UNL     1     -14.532  11.349   2.585  0.00  0.00    +0.000 A 
ATOM     13  O   UNL     1     -14.312  10.065   3.064  0.00  0.00    +0.000 OA
ATOM     14  C   UNL     1     -15.796  11.651   2.085  0.00  0.00    +0.000 A 
ATOM     15  C   UNL     1     -16.150  12.973   1.853  0.00  0.00    +0.000 A 
ATOM     16  O   UNL     1     -17.339  13.291   1.199  0.00  0.00    +0.000 OA
ATOM     17  C   UNL     1     -15.255  13.926   2.301  0.00  0.00    +0.000 A 
ENDBRANCH   9  10
ENDBRANCH   7   8
BRANCH   1  18
ATOM     18  O   UNL     1     -13.682  16.850  -0.761  0.00  0.00    +0.000 OA
BRANCH  18  19
ATOM     19  C   UNL     1     -14.344  17.868  -1.711  0.00  0.00    +0.000 C 
BRANCH  19  20
ATOM     20  C   UNL     1     -14.678  16.702  -2.823  0.00  0.00    +0.000 C 
BRANCH  20  22
ATOM     21  O   UNL     1     -16.023  17.811  -4.706  0.00  0.00    +0.000 OA
ATOM     22  S   UNL     1     -14.789  17.577  -4.379  0.00  0.00    +0.000 S 
ATOM     23  O   UNL     1     -13.960  18.828  -4.226  0.00  0.00    +0.000 OA
ATOM     24  O   UNL     1     -14.063  16.665  -5.603  0.00  0.00    +0.000 OA
ENDBRANCH  20  22
ENDBRANCH  19  20
BRANCH  19  25
ATOM     25  C   UNL     1     -15.812  17.687  -0.985  0.00  0.00    +0.000 C 
BRANCH  25  26
ATOM     26  N   UNL     1     -16.062  19.082  -0.627  0.00  0.00    +0.000 N 
ATOM     27  C   UNL     1     -16.167  19.472   0.668  0.00  0.00    +0.000 A 
ATOM     28  C   UNL     1     -16.052  20.810   1.027  0.00  0.00    +0.000 A 
ATOM     29  C   UNL     1     -15.319  21.593   0.143  0.00  0.00    +0.000 A 
ATOM     30  C   UNL     1     -15.375  21.261  -1.205  0.00  0.00    +0.000 A 
ATOM     31  C   UNL     1     -16.031  20.080  -1.531  0.00  0.00    +0.000 A 
ENDBRANCH  25  26
ENDBRANCH  19  25
ENDBRANCH  18  19
ENDBRANCH   1  18
TORSDOF 8
ENDMDL
MODEL 4
REMARK VINA RESULT:      -6.4     18.869     21.168
REMARK  Name = 
REMARK  8 active torsions:
REMARK  status: ('A' for Active; 'I' for Inactive)
REMARK    1  A    between atoms: S_2  and  C_5
REMARK    2  A    between atoms: C_5  and  C_6
REMARK    3  A    between atoms: C_6  and  C_7
REMARK    4  A    between atoms: C_6  and  O_14
REMARK    5  A    between atoms: C_7  and  N_8
REMARK    6  A    between atoms: O_14  and  C_15
REMARK    7  A    between atoms: C_21  and  C_22
REMARK    8  A    between atoms: C_23  and  C_24
REMARK                            x       y       z     vdW  Elec       q    Type
REMARK                         _______ _______ _______ _____ _____    ______ ____
ROOT
ATOM      1  C   UNL     1     -17.837  -6.718   5.863  0.00  0.00    +0.000 A 
ATOM      2  C   UNL     1     -17.307  -7.877   5.299  0.00  0.00    +0.000 A 
ATOM      3  C   UNL     1     -16.523  -7.764   4.154  0.00  0.00    +0.000 A 
ATOM      4  O   UNL     1     -15.620  -8.775   3.804  0.00  0.00    +0.000 OA
ATOM      5  C   UNL     1     -16.369  -6.504   3.585  0.00  0.00    +0.000 A 
ATOM      6  C   UNL     1     -16.610  -5.375   4.360  0.00  0.00    +0.000 A 
ATOM      7  C   UNL     1     -17.308  -5.462   5.564  0.00  0.00    +0.000 A 
ENDROOT
BRANCH   7   8
ATOM      8  C   UNL     1     -17.189  -4.529   6.620  0.00  0.00    +0.000 C 
ATOM      9  C   UNL     1     -17.064  -3.361   6.908  0.00  0.00    +0.000 C 
BRANCH   9  10
ATOM     10  C   UNL     1     -17.212  -2.016   6.530  0.00  0.00    +0.000 A 
ATOM     11  C   UNL     1     -16.179  -1.403   5.824  0.00  0.00    +0.000 A 
ATOM     12  C   UNL     1     -16.001  -0.022   5.846  0.00  0.00    +0.000 A 
ATOM     13  O   UNL     1     -15.110   0.632   5.005  0.00  0.00    +0.000 OA
ATOM     14  C   UNL     1     -16.809   0.755   6.670  0.00  0.00    +0.000 A 
ATOM     15  C   UNL     1     -17.894   0.179   7.318  0.00  0.00    +0.000 A 
ATOM     16  O   UNL     1     -18.615   0.889   8.276  0.00  0.00    +0.000 OA
ATOM     17  C   UNL     1     -18.192  -1.122   6.957  0.00  0.00    +0.000 A 
ENDBRANCH   9  10
ENDBRANCH   7   8
BRANCH   1  18
ATOM     18  O   UNL     1     -19.031  -6.741   6.594  0.00  0.00    +0.000 OA
BRANCH  18  19
ATOM     19  C   UNL     1     -19.017  -7.988   7.501  0.00  0.00    +0.000 C 
BRANCH  19  20
ATOM     20  C   UNL     1     -19.264  -7.081   8.852  0.00  0.00    +0.000 C 
BRANCH  20  22
ATOM     21  O   UNL     1     -18.310  -7.595  11.177  0.00  0.00    +0.000 OA
ATOM     22  S   UNL     1     -18.938  -8.195  10.212  0.00  0.00    +0.000 S 
ATOM     23  O   UNL     1     -20.271  -8.767  10.626  0.00  0.00    +0.000 OA
ATOM     24  O   UNL     1     -18.001  -9.496   9.677  0.00  0.00    +0.000 OA
ENDBRANCH  20  22
ENDBRANCH  19  20
BRANCH  19  25
ATOM     25  C   UNL     1     -20.633  -8.235   7.293  0.00  0.00    +0.000 C 
BRANCH  25  26
ATOM     26  N   UNL     1     -20.573  -9.331   6.327  0.00  0.00    +0.000 N 
ATOM     27  C   UNL     1     -20.930  -9.150   5.031  0.00  0.00    +0.000 A 
ATOM     28  C   UNL     1     -20.551 -10.058   4.048  0.00  0.00    +0.000 A 
ATOM     29  C   UNL     1     -19.406 -10.792   4.338  0.00  0.00    +0.000 A 
ATOM     30  C   UNL     1     -19.166 -11.104   5.670  0.00  0.00    +0.000 A 
ATOM     31  C   UNL     1     -20.006 -10.519   6.611  0.00  0.00    +0.000 A 
ENDBRANCH  25  26
ENDBRANCH  19  25
ENDBRANCH  18  19
ENDBRANCH   1  18
TORSDOF 8
ENDMDL
MODEL 5
REMARK VINA RESULT:      -6.2     32.906     36.428
REMARK  Name = 
REMARK  8 active torsions:
REMARK  status: ('A' for Active; 'I' for Inactive)
REMARK    1  A    between atoms: S_2  and  C_5
REMARK    2  A    between atoms: C_5  and  C_6
REMARK    3  A    between atoms: C_6  and  C_7
REMARK    4  A    between atoms: C_6  and  O_14
REMARK    5  A    between atoms: C_7  and  N_8
REMARK    6  A    between atoms: O_14  and  C_15
REMARK    7  A    between atoms: C_21  and  C_22
REMARK    8  A    between atoms: C_23  and  C_24
REMARK                            x       y       z     vdW  Elec       q    Type
REMARK                         _______ _______ _______ _____ _____    ______ ____
ROOT
ATOM      1  C   UNL     1     -13.217  18.147 -19.908  0.00  0.00    +0.000 A 
ATOM      2  C   UNL     1     -14.092  17.157 -20.350  0.00  0.00    +0.000 A 
ATOM      3  C   UNL     1     -14.197  16.922 -21.718  0.00  0.00    +0.000 A 
ATOM      4  O   UNL     1     -14.683  15.699 -22.196  0.00  0.00    +0.000 OA
ATOM      5  C   UNL     1     -13.478  17.740 -22.583  0.00  0.00    +0.000 A 
ATOM      6  C   UNL     1     -12.385  18.448 -22.096  0.00  0.00    +0.000 A 
ATOM      7  C   UNL     1     -12.191  18.623 -20.726  0.00  0.00    +0.000 A 
ENDROOT
BRANCH   7   8
ATOM      8  C   UNL     1     -10.935  18.875 -20.128  0.00  0.00    +0.000 C 
ATOM      9  C   UNL     1      -9.820  19.312 -20.299  0.00  0.00    +0.000 C 
BRANCH   9  10
ATOM     10  C   UNL     1      -8.963  20.137 -21.046  0.00  0.00    +0.000 A 
ATOM     11  C   UNL     1      -8.167  21.060 -20.371  0.00  0.00    +0.000 A 
ATOM     12  C   UNL     1      -7.693  22.210 -20.997  0.00  0.00    +0.000 A 
ATOM     13  O   UNL     1      -6.746  23.043 -20.417  0.00  0.00    +0.000 OA
ATOM     14  C   UNL     1      -8.106  22.497 -22.295  0.00  0.00    +0.000 A 
ATOM     15  C   UNL     1      -8.831  21.556 -23.014  0.00  0.00    +0.000 A 
ATOM     16  O   UNL     1      -9.399  21.878 -24.246  0.00  0.00    +0.000 OA
ATOM     17  C   UNL     1      -8.951  20.310 -22.429  0.00  0.00    +0.000 A 
ENDBRANCH   9  10
ENDBRANCH   7   8
BRANCH   1  18
ATOM     18  O   UNL     1     -13.441  18.840 -18.712  0.00  0.00    +0.000 OA
BRANCH  18  19
ATOM     19  C   UNL     1     -14.571  19.863 -18.952  0.00  0.00    +0.000 C 
BRANCH  19  20
ATOM     20  C   UNL     1     -15.332  19.438 -17.556  0.00  0.00    +0.000 C 
BRANCH  20  22
ATOM     21  O   UNL     1     -16.948  18.571 -19.349  0.00  0.00    +0.000 OA
ATOM     22  S   UNL     1     -16.929  18.828 -18.077  0.00  0.00    +0.000 S 
ATOM     23  O   UNL     1     -17.230  17.626 -17.216  0.00  0.00    +0.000 OA
ATOM     24  O   UNL     1     -18.122  19.975 -17.734  0.00  0.00    +0.000 OA
ENDBRANCH  20  22
ENDBRANCH  19  20
BRANCH  19  25
ATOM     25  C   UNL     1     -13.729  21.065 -18.203  0.00  0.00    +0.000 C 
BRANCH  25  26
ATOM     26  N   UNL     1     -13.351  21.844 -19.380  0.00  0.00    +0.000 N 
ATOM     27  C   UNL     1     -12.090  22.319 -19.538  0.00  0.00    +0.000 A 
ATOM     28  C   UNL     1     -11.633  22.744 -20.781  0.00  0.00    +0.000 A 
ATOM     29  C   UNL     1     -12.282  22.174 -21.871  0.00  0.00    +0.000 A 
ATOM     30  C   UNL     1     -13.627  21.858 -21.721  0.00  0.00    +0.000 A 
ATOM     31  C   UNL     1     -14.163  21.991 -20.445  0.00  0.00    +0.000 A 
ENDBRANCH  25  26
ENDBRANCH  19  25
ENDBRANCH  18  19
ENDBRANCH   1  18
TORSDOF 8
ENDMDL
MODEL 6
REMARK VINA RESULT:      -6.0     14.370     16.935
REMARK  Name = 
REMARK  8 active torsions:
REMARK  status: ('A' for Active; 'I' for Inactive)
REMARK    1  A    between atoms: S_2  and  C_5
REMARK    2  A    between atoms: C_5  and  C_6
REMARK    3  A    between atoms: C_6  and  C_7
REMARK    4  A    between atoms: C_6  and  O_14
REMARK    5  A    between atoms: C_7  and  N_8
REMARK    6  A    between atoms: O_14  and  C_15
REMARK    7  A    between atoms: C_21  and  C_22
REMARK    8  A    between atoms: C_23  and  C_24
REMARK                            x       y       z     vdW  Elec       q    Type
REMARK                         _______ _______ _______ _____ _____    ______ ____
ROOT
ATOM      1  C   UNL     1     -25.028   9.026  -4.134  0.00  0.00    +0.000 A 
ATOM      2  C   UNL     1     -25.542  10.120  -3.439  0.00  0.00    +0.000 A 
ATOM      3  C   UNL     1     -24.683  11.166  -3.114  0.00  0.00    +0.000 A 
ATOM      4  O   UNL     1     -25.187  12.442  -2.837  0.00  0.00    +0.000 OA
ATOM      5  C   UNL     1     -23.336  11.034  -3.432  0.00  0.00    +0.000 A 
ATOM      6  C   UNL     1     -22.954  10.120  -4.407  0.00  0.00    +0.000 A 
ATOM      7  C   UNL     1     -23.823   9.114  -4.832  0.00  0.00    +0.000 A 
ENDROOT
BRANCH   7   8
ATOM      8  C   UNL     1     -23.743   8.476  -6.091  0.00  0.00    +0.000 C 
ATOM      9  C   UNL     1     -24.338   8.194  -7.105  0.00  0.00    +0.000 C 
BRANCH   9  10
ATOM     10  C   UNL     1     -25.406   8.467  -7.977  0.00  0.00    +0.000 A 
ATOM     11  C   UNL     1     -26.645   8.799  -7.433  0.00  0.00    +0.000 A 
ATOM     12  C   UNL     1     -27.829   8.597  -8.137  0.00  0.00    +0.000 A 
ATOM     13  O   UNL     1     -29.051   9.093  -7.706  0.00  0.00    +0.000 OA
ATOM     14  C   UNL     1     -27.784   7.954  -9.371  0.00  0.00    +0.000 A 
ATOM     15  C   UNL     1     -26.560   7.688  -9.968  0.00  0.00    +0.000 A 
ATOM     16  O   UNL     1     -26.479   6.901 -11.116  0.00  0.00    +0.000 OA
ATOM     17  C   UNL     1     -25.453   8.240  -9.351  0.00  0.00    +0.000 A 
ENDBRANCH   9  10
ENDBRANCH   7   8
BRANCH   1  18
ATOM     18  O   UNL     1     -25.589   7.750  -4.005  0.00  0.00    +0.000 OA
BRANCH  18  19
ATOM     19  C   UNL     1     -25.761   7.447  -2.503  0.00  0.00    +0.000 C 
BRANCH  19  20
ATOM     20  C   UNL     1     -27.066   6.485  -2.785  0.00  0.00    +0.000 C 
BRANCH  20  22
ATOM     21  O   UNL     1     -27.346   6.986  -0.285  0.00  0.00    +0.000 OA
ATOM     22  S   UNL     1     -27.704   6.097  -1.160  0.00  0.00    +0.000 S 
ATOM     23  O   UNL     1     -29.200   5.967  -1.308  0.00  0.00    +0.000 OA
ATOM     24  O   UNL     1     -27.135   4.584  -0.667  0.00  0.00    +0.000 OA
ENDBRANCH  20  22
ENDBRANCH  19  20
BRANCH  19  25
ATOM     25  C   UNL     1     -24.723   6.170  -2.575  0.00  0.00    +0.000 C 
BRANCH  25  26
ATOM     26  N   UNL     1     -23.792   6.575  -1.523  0.00  0.00    +0.000 N 
ATOM     27  C   UNL     1     -22.734   5.798  -1.179  0.00  0.00    +0.000 A 
ATOM     28  C   UNL     1     -21.669   6.317  -0.452  0.00  0.00    +0.000 A 
ATOM     29  C   UNL     1     -21.486   7.689  -0.576  0.00  0.00    +0.000 A 
ATOM     30  C   UNL     1     -22.620   8.471  -0.759  0.00  0.00    +0.000 A 
ATOM     31  C   UNL     1     -23.820   7.798  -0.959  0.00  0.00    +0.000 A 
ENDBRANCH  25  26
ENDBRANCH  19  25
ENDBRANCH  18  19
ENDBRANCH   1  18
TORSDOF 8
ENDMDL
MODEL 7
REMARK VINA RESULT:      -5.9     32.007     35.457
REMARK  Name = 
REMARK  8 active torsions:
REMARK  status: ('A' for Active; 'I' for Inactive)
REMARK    1  A    between atoms: S_2  and  C_5
REMARK    2  A    between atoms: C_5  and  C_6
REMARK    3  A    between atoms: C_6  and  C_7
REMARK    4  A    between atoms: C_6  and  O_14
REMARK    5  A    between atoms: C_7  and  N_8
REMARK    6  A    between atoms: O_14  and  C_15
REMARK    7  A    between atoms: C_21  and  C_22
REMARK    8  A    between atoms: C_23  and  C_24
REMARK                            x       y       z     vdW  Elec       q    Type
REMARK                         _______ _______ _______ _____ _____    ______ ____
ROOT
ATOM      1  C   UNL     1     -20.651  15.162  19.249  0.00  0.00    +0.000 A 
ATOM      2  C   UNL     1     -21.539  15.341  20.308  0.00  0.00    +0.000 A 
ATOM      3  C   UNL     1     -21.065  15.182  21.608  0.00  0.00    +0.000 A 
ATOM      4  O   UNL     1     -21.739  15.763  22.688  0.00  0.00    +0.000 OA
ATOM      5  C   UNL     1     -19.746  14.777  21.782  0.00  0.00    +0.000 A 
ATOM      6  C   UNL     1     -18.838  14.955  20.745  0.00  0.00    +0.000 A 
ATOM      7  C   UNL     1     -19.271  15.214  19.444  0.00  0.00    +0.000 A 
ENDROOT
BRANCH   7   8
ATOM      8  C   UNL     1     -18.491  15.870  18.464  0.00  0.00    +0.000 C 
ATOM      9  C   UNL     1     -17.596  16.659  18.267  0.00  0.00    +0.000 C 
BRANCH   9  10
ATOM     10  C   UNL     1     -16.461  17.325  18.761  0.00  0.00    +0.000 A 
ATOM     11  C   UNL     1     -15.876  18.318  17.979  0.00  0.00    +0.000 A 
ATOM     12  C   UNL     1     -14.535  18.664  18.123  0.00  0.00    +0.000 A 
ATOM     13  O   UNL     1     -13.976  19.773  17.503  0.00  0.00    +0.000 OA
ATOM     14  C   UNL     1     -13.734  17.933  18.996  0.00  0.00    +0.000 A 
ATOM     15  C   UNL     1     -14.310  16.995  19.843  0.00  0.00    +0.000 A 
ATOM     16  O   UNL     1     -13.520  16.135  20.602  0.00  0.00    +0.000 OA
ATOM     17  C   UNL     1     -15.692  16.974  19.869  0.00  0.00    +0.000 A 
ENDBRANCH   9  10
ENDBRANCH   7   8
BRANCH   1  18
ATOM     18  O   UNL     1     -21.093  14.734  17.990  0.00  0.00    +0.000 OA
BRANCH  18  19
ATOM     19  C   UNL     1     -20.779  13.230  17.855  0.00  0.00    +0.000 C 
BRANCH  19  20
ATOM     20  C   UNL     1     -22.366  12.859  17.623  0.00  0.00    +0.000 C 
BRANCH  20  22
ATOM     21  O   UNL     1     -23.379  10.717  18.606  0.00  0.00    +0.000 OA
ATOM     22  S   UNL     1     -22.793  11.805  19.003  0.00  0.00    +0.000 S 
ATOM     23  O   UNL     1     -21.514  11.557  19.764  0.00  0.00    +0.000 OA
ATOM     24  O   UNL     1     -23.827  12.629  20.056  0.00  0.00    +0.000 OA
ENDBRANCH  20  22
ENDBRANCH  19  20
BRANCH  19  25
ATOM     25  C   UNL     1     -20.507  13.366  16.237  0.00  0.00    +0.000 C 
BRANCH  25  26
ATOM     26  N   UNL     1     -19.077  13.069  16.221  0.00  0.00    +0.000 N 
ATOM     27  C   UNL     1     -18.527  12.195  17.101  0.00  0.00    +0.000 A 
ATOM     28  C   UNL     1     -17.269  11.645  16.877  0.00  0.00    +0.000 A 
ATOM     29  C   UNL     1     -16.880  11.595  15.544  0.00  0.00    +0.000 A 
ATOM     30  C   UNL     1     -17.329  12.610  14.707  0.00  0.00    +0.000 A 
ATOM     31  C   UNL     1     -18.257  13.497  15.242  0.00  0.00    +0.000 A 
ENDBRANCH  25  26
ENDBRANCH  19  25
ENDBRANCH  18  19
ENDBRANCH   1  18
TORSDOF 8
ENDMDL
MODEL 8
REMARK VINA RESULT:      -5.9     33.284     34.970
REMARK  Name = 
REMARK  8 active torsions:
REMARK  status: ('A' for Active; 'I' for Inactive)
REMARK    1  A    between atoms: S_2  and  C_5
REMARK    2  A    between atoms: C_5  and  C_6
REMARK    3  A    between atoms: C_6  and  C_7
REMARK    4  A    between atoms: C_6  and  O_14
REMARK    5  A    between atoms: C_7  and  N_8
REMARK    6  A    between atoms: O_14  and  C_15
REMARK    7  A    between atoms: C_21  and  C_22
REMARK    8  A    between atoms: C_23  and  C_24
REMARK                            x       y       z     vdW  Elec       q    Type
REMARK                         _______ _______ _______ _____ _____    ______ ____
ROOT
ATOM      1  C   UNL     1      -1.214   1.640 -10.082  0.00  0.00    +0.000 A 
ATOM      2  C   UNL     1      -1.277   2.462 -11.206  0.00  0.00    +0.000 A 
ATOM      3  C   UNL     1      -0.551   2.100 -12.337  0.00  0.00    +0.000 A 
ATOM      4  O   UNL     1      -0.902   2.596 -13.598  0.00  0.00    +0.000 OA
ATOM      5  C   UNL     1       0.262   0.975 -12.264  0.00  0.00    +0.000 A 
ATOM      6  C   UNL     1       0.021   0.024 -11.279  0.00  0.00    +0.000 A 
ATOM      7  C   UNL     1      -0.782   0.317 -10.176  0.00  0.00    +0.000 A 
ENDROOT
BRANCH   7   8
ATOM      8  C   UNL     1      -1.468  -0.656  -9.414  0.00  0.00    +0.000 C 
ATOM      9  C   UNL     1      -1.509  -1.821  -9.089  0.00  0.00    +0.000 C 
BRANCH   9  10
ATOM     10  C   UNL     1      -0.832  -3.043  -8.943  0.00  0.00    +0.000 A 
ATOM     11  C   UNL     1      -0.396  -3.707 -10.087  0.00  0.00    +0.000 A 
ATOM     12  C   UNL     1      -0.188  -5.084 -10.097  0.00  0.00    +0.000 A 
ATOM     13  O   UNL     1       0.428  -5.741 -11.153  0.00  0.00    +0.000 OA
ATOM     14  C   UNL     1      -0.518  -5.829  -8.969  0.00  0.00    +0.000 A 
ATOM     15  C   UNL     1      -0.876  -5.183  -7.793  0.00  0.00    +0.000 A 
ATOM     16  O   UNL     1      -1.371  -5.899  -6.705  0.00  0.00    +0.000 OA
ATOM     17  C   UNL     1      -0.716  -3.811  -7.785  0.00  0.00    +0.000 A 
ENDBRANCH   9  10
ENDBRANCH   7   8
BRANCH   1  18
ATOM     18  O   UNL     1      -1.393   2.153  -8.791  0.00  0.00    +0.000 OA
BRANCH  18  19
ATOM     19  C   UNL     1      -0.290   3.200  -8.531  0.00  0.00    +0.000 C 
BRANCH  19  20
ATOM     20  C   UNL     1      -1.398   4.390  -8.274  0.00  0.00    +0.000 C 
BRANCH  20  22
ATOM     21  O   UNL     1       0.165   5.748  -9.788  0.00  0.00    +0.000 OA
ATOM     22  S   UNL     1      -0.552   5.902  -8.717  0.00  0.00    +0.000 S 
ATOM     23  O   UNL     1      -1.615   6.963  -8.853  0.00  0.00    +0.000 OA
ATOM     24  O   UNL     1       0.455   6.388  -7.450  0.00  0.00    +0.000 OA
ENDBRANCH  20  22
ENDBRANCH  19  20
BRANCH  19  25
ATOM     25  C   UNL     1      -0.224   2.827  -6.928  0.00  0.00    +0.000 C 
BRANCH  25  26
ATOM     26  N   UNL     1       0.804   1.789  -6.979  0.00  0.00    +0.000 N 
ATOM     27  C   UNL     1       0.592   0.558  -6.449  0.00  0.00    +0.000 A 
ATOM     28  C   UNL     1       1.399  -0.521  -6.794  0.00  0.00    +0.000 A 
ATOM     29  C   UNL     1       2.020  -0.416  -8.033  0.00  0.00    +0.000 A 
ATOM     30  C   UNL     1       2.377   0.855  -8.465  0.00  0.00    +0.000 A 
ATOM     31  C   UNL     1       1.938   1.924  -7.692  0.00  0.00    +0.000 A 
ENDBRANCH  25  26
ENDBRANCH  19  25
ENDBRANCH  18  19
ENDBRANCH   1  18
TORSDOF 8
ENDMDL
MODEL 9
REMARK VINA RESULT:      -5.8     13.295     15.982
REMARK  Name = 
REMARK  8 active torsions:
REMARK  status: ('A' for Active; 'I' for Inactive)
REMARK    1  A    between atoms: S_2  and  C_5
REMARK    2  A    between atoms: C_5  and  C_6
REMARK    3  A    between atoms: C_6  and  C_7
REMARK    4  A    between atoms: C_6  and  O_14
REMARK    5  A    between atoms: C_7  and  N_8
REMARK    6  A    between atoms: O_14  and  C_15
REMARK    7  A    between atoms: C_21  and  C_22
REMARK    8  A    between atoms: C_23  and  C_24
REMARK                            x       y       z     vdW  Elec       q    Type
REMARK                         _______ _______ _______ _____ _____    ______ ____
ROOT
ATOM      1  C   UNL     1     -28.057   8.387  -7.657  0.00  0.00    +0.000 A 
ATOM      2  C   UNL     1     -29.424   8.614  -7.518  0.00  0.00    +0.000 A 
ATOM      3  C   UNL     1     -30.000   8.464  -6.259  0.00  0.00    +0.000 A 
ATOM      4  O   UNL     1     -31.215   9.086  -5.952  0.00  0.00    +0.000 OA
ATOM      5  C   UNL     1     -29.194   8.019  -5.217  0.00  0.00    +0.000 A 
ATOM      6  C   UNL     1     -27.813   8.149  -5.322  0.00  0.00    +0.000 A 
ATOM      7  C   UNL     1     -27.205   8.398  -6.553  0.00  0.00    +0.000 A 
ENDROOT
BRANCH   7   8
ATOM      8  C   UNL     1     -25.939   9.009  -6.702  0.00  0.00    +0.000 C 
ATOM      9  C   UNL     1     -24.892   9.278  -6.160  0.00  0.00    +0.000 C 
BRANCH   9  10
ATOM     10  C   UNL     1     -23.975   9.000  -5.132  0.00  0.00    +0.000 A 
ATOM     11  C   UNL     1     -24.171   7.865  -4.349  0.00  0.00    +0.000 A 
ATOM     12  C   UNL     1     -23.660   7.771  -3.058  0.00  0.00    +0.000 A 
ATOM     13  O   UNL     1     -23.670   6.588  -2.331  0.00  0.00    +0.000 OA
ATOM     14  C   UNL     1     -23.024   8.875  -2.497  0.00  0.00    +0.000 A 
ATOM     15  C   UNL     1     -22.745   9.986  -3.282  0.00  0.00    +0.000 A 
ATOM     16  O   UNL     1     -22.265  11.163  -2.712  0.00  0.00    +0.000 OA
ATOM     17  C   UNL     1     -22.981   9.843  -4.637  0.00  0.00    +0.000 A 
ENDBRANCH   9  10
ENDBRANCH   7   8
BRANCH   1  18
ATOM     18  O   UNL     1     -27.508   7.950  -8.870  0.00  0.00    +0.000 OA
BRANCH  18  19
ATOM     19  C   UNL     1     -28.263   8.647 -10.020  0.00  0.00    +0.000 C 
BRANCH  19  20
ATOM     20  C   UNL     1     -26.995   9.651 -10.323  0.00  0.00    +0.000 C 
BRANCH  20  22
ATOM     21  O   UNL     1     -28.856  11.335  -9.795  0.00  0.00    +0.000 OA
ATOM     22  S   UNL     1     -27.720  11.283 -10.420  0.00  0.00    +0.000 S 
ATOM     23  O   UNL     1     -26.689  12.242  -9.878  0.00  0.00    +0.000 OA
ATOM     24  O   UNL     1     -27.966  11.705 -12.038  0.00  0.00    +0.000 OA
ENDBRANCH  20  22
ENDBRANCH  19  20
BRANCH  19  25
ATOM     25  C   UNL     1     -27.736   7.542 -11.122  0.00  0.00    +0.000 C 
BRANCH  25  26
ATOM     26  N   UNL     1     -28.892   6.647 -11.116  0.00  0.00    +0.000 N 
ATOM     27  C   UNL     1     -28.756   5.320 -10.867  0.00  0.00    +0.000 A 
ATOM     28  C   UNL     1     -29.852   4.540 -10.514  0.00  0.00    +0.000 A 
ATOM     29  C   UNL     1     -30.901   5.235  -9.924  0.00  0.00    +0.000 A 
ATOM     30  C   UNL     1     -31.113   6.545 -10.334  0.00  0.00    +0.000 A 
ATOM     31  C   UNL     1     -30.159   7.097 -11.183  0.00  0.00    +0.000 A 
ENDBRANCH  25  26
ENDBRANCH  19  25
ENDBRANCH  18  19
ENDBRANCH   1  18
TORSDOF 8
ENDMDL
MODEL 10
REMARK VINA RESULT:      -5.8      2.805      6.804
REMARK  Name = 
REMARK  8 active torsions:
REMARK  status: ('A' for Active; 'I' for Inactive)
REMARK    1  A    between atoms: S_2  and  C_5
REMARK    2  A    between atoms: C_5  and  C_6
REMARK    3  A    between atoms: C_6  and  C_7
REMARK    4  A    between atoms: C_6  and  O_14
REMARK    5  A    between atoms: C_7  and  N_8
REMARK    6  A    between atoms: O_14  and  C_15
REMARK    7  A    between atoms: C_21  and  C_22
REMARK    8  A    between atoms: C_23  and  C_24
REMARK                            x       y       z     vdW  Elec       q    Type
REMARK                         _______ _______ _______ _____ _____    ______ ____
ROOT
ATOM      1  C   UNL     1     -34.663  -3.094  -6.195  0.00  0.00    +0.000 A 
ATOM      2  C   UNL     1     -35.284  -2.302  -5.232  0.00  0.00    +0.000 A 
ATOM      3  C   UNL     1     -36.629  -1.981  -5.399  0.00  0.00    +0.000 A 
ATOM      4  O   UNL     1     -37.411  -1.595  -4.305  0.00  0.00    +0.000 OA
ATOM      5  C   UNL     1     -37.266  -2.405  -6.560  0.00  0.00    +0.000 A 
ATOM      6  C   UNL     1     -36.722  -3.457  -7.289  0.00  0.00    +0.000 A 
ATOM      7  C   UNL     1     -35.406  -3.873  -7.082  0.00  0.00    +0.000 A 
ENDROOT
BRANCH   7   8
ATOM      8  C   UNL     1     -34.928  -5.169  -7.382  0.00  0.00    +0.000 C 
ATOM      9  C   UNL     1     -35.135  -6.190  -7.996  0.00  0.00    +0.000 C 
BRANCH   9  10
ATOM     10  C   UNL     1     -35.784  -6.828  -9.067  0.00  0.00    +0.000 A 
ATOM     11  C   UNL     1     -35.009  -7.459 -10.038  0.00  0.00    +0.000 A 
ATOM     12  C   UNL     1     -35.485  -7.663 -11.331  0.00  0.00    +0.000 A 
ATOM     13  O   UNL     1     -34.820  -8.455 -12.257  0.00  0.00    +0.000 OA
ATOM     14  C   UNL     1     -36.721  -7.137 -11.691  0.00  0.00    +0.000 A 
ATOM     15  C   UNL     1     -37.544  -6.577 -10.723  0.00  0.00    +0.000 A 
ATOM     16  O   UNL     1     -38.707  -5.895 -11.078  0.00  0.00    +0.000 OA
ATOM     17  C   UNL     1     -37.131  -6.735  -9.414  0.00  0.00    +0.000 A 
ENDBRANCH   9  10
ENDBRANCH   7   8
BRANCH   1  18
ATOM     18  O   UNL     1     -33.288  -2.997  -6.444  0.00  0.00    +0.000 OA
BRANCH  18  19
ATOM     19  C   UNL     1     -32.560  -3.998  -5.523  0.00  0.00    +0.000 C 
BRANCH  19  20
ATOM     20  C   UNL     1     -31.116  -3.238  -5.739  0.00  0.00    +0.000 C 
BRANCH  20  22
ATOM     21  O   UNL     1     -29.217  -4.663  -6.710  0.00  0.00    +0.000 OA
ATOM     22  S   UNL     1     -29.895  -4.537  -5.611  0.00  0.00    +0.000 S 
ATOM     23  O   UNL     1     -29.041  -4.205  -4.412  0.00  0.00    +0.000 OA
ATOM     24  O   UNL     1     -30.655  -6.007  -5.268  0.00  0.00    +0.000 OA
ENDBRANCH  20  22
ENDBRANCH  19  20
BRANCH  19  25
ATOM     25  C   UNL     1     -32.901  -3.108  -4.180  0.00  0.00    +0.000 C 
BRANCH  25  26
ATOM     26  N   UNL     1     -32.882  -4.180  -3.186  0.00  0.00    +0.000 N 
ATOM     27  C   UNL     1     -33.630  -5.301  -3.342  0.00  0.00    +0.000 A 
ATOM     28  C   UNL     1     -33.360  -6.452  -2.609  0.00  0.00    +0.000 A 
ATOM     29  C   UNL     1     -32.048  -6.571  -2.167  0.00  0.00    +0.000 A 
ATOM     30  C   UNL     1     -31.369  -5.400  -1.853  0.00  0.00    +0.000 A 
ATOM     31  C   UNL     1     -32.008  -4.205  -2.162  0.00  0.00    +0.000 A 
ENDBRANCH  25  26
ENDBRANCH  19  25
ENDBRANCH  18  19
ENDBRANCH   1  18
TORSDOF 8
ENDMDL
