MODEL 1
REMARK VINA RESULT:      -8.6      0.000      0.000
REMARK  Name = 
REMARK  7 active torsions:
REMARK  status: ('A' for Active; 'I' for Inactive)
REMARK    1  A    between atoms: N_2  and  C_4
REMARK    2  A    between atoms: C_4  and  C_5
REMARK    3  A    between atoms: C_5  and  O_6
REMARK    4  A    between atoms: C_5  and  C_24
REMARK    5  A    between atoms: O_6  and  C_7
REMARK    6  A    between atoms: C_13  and  C_14
REMARK    7  A    between atoms: C_15  and  C_16
REMARK                            x       y       z     vdW  Elec       q    Type
REMARK                         _______ _______ _______ _____ _____    ______ ____
ROOT
ATOM      1  C   UNL     1     -30.180  -4.909  -4.911  0.00  0.00    +0.000 A 
ATOM      2  C   UNL     1     -28.898  -4.961  -4.382  0.00  0.00    +0.000 A 
ATOM      3  C   UNL     1     -28.031  -3.887  -4.564  0.00  0.00    +0.000 A 
ATOM      4  O   UNL     1     -27.001  -3.658  -3.645  0.00  0.00    +0.000 OA
ATOM      5  C   UNL     1     -28.367  -2.918  -5.497  0.00  0.00    +0.000 A 
ATOM      6  C   UNL     1     -29.428  -3.186  -6.317  0.00  0.00    +0.000 A 
ATOM      7  C   UNL     1     -30.274  -4.280  -6.147  0.00  0.00    +0.000 A 
ENDROOT
BRANCH   7   8
ATOM      8  C   UNL     1     -31.461  -4.486  -6.951  0.00  0.00    +0.000 C 
ATOM      9  C   UNL     1     -32.478  -3.672  -7.066  0.00  0.00    +0.000 C 
BRANCH   9  10
ATOM     10  C   UNL     1     -33.848  -4.007  -6.632  0.00  0.00    +0.000 A 
ATOM     11  C   UNL     1     -34.451  -5.193  -7.039  0.00  0.00    +0.000 A 
ATOM     12  C   UNL     1     -35.717  -5.224  -7.607  0.00  0.00    +0.000 A 
ATOM     13  O   UNL     1     -36.106  -6.206  -8.524  0.00  0.00    +0.000 OA
ATOM     14  C   UNL     1     -36.501  -4.077  -7.593  0.00  0.00    +0.000 A 
ATOM     15  C   UNL     1     -36.094  -3.087  -6.707  0.00  0.00    +0.000 A 
ATOM     16  O   UNL     1     -36.883  -1.932  -6.696  0.00  0.00    +0.000 OA
ATOM     17  C   UNL     1     -34.750  -2.983  -6.367  0.00  0.00    +0.000 A 
ENDBRANCH   9  10
ENDBRANCH   7   8
BRANCH   1  18
ATOM     18  O   UNL     1     -31.297  -5.442  -4.252  0.00  0.00    +0.000 OA
BRANCH  18  19
ATOM     19  C   UNL     1     -30.919  -5.712  -2.776  0.00  0.00    +0.000 C 
BRANCH  19  20
ATOM     20  C   UNL     1     -32.468  -5.697  -2.289  0.00  0.00    +0.000 A 
ATOM     21  C   UNL     1     -33.207  -4.788  -3.049  0.00  0.00    +0.000 A 
ATOM     22  C   UNL     1     -34.509  -5.010  -3.414  0.00  0.00    +0.000 A 
ATOM     23  C   UNL     1     -34.966  -6.314  -3.468  0.00  0.00    +0.000 A 
ATOM     24  C   UNL     1     -34.305  -7.233  -2.680  0.00  0.00    +0.000 A 
ATOM     25  C   UNL     1     -33.029  -6.965  -2.198  0.00  0.00    +0.000 A 
ATOM     26  O   UNL     1     -35.114  -8.373  -2.715  0.00  0.00    +0.000 OA
ATOM     27  C   UNL     1     -36.072  -8.247  -3.762  0.00  0.00    +0.000 C 
ATOM     28  O   UNL     1     -35.695  -7.040  -4.417  0.00  0.00    +0.000 OA
ENDBRANCH  19  20
BRANCH  19  29
ATOM     29  C   UNL     1     -30.886  -7.338  -3.020  0.00  0.00    +0.000 C 
BRANCH  29  31
ATOM     30  O   UNL     1     -29.520  -7.817  -2.290  0.00  0.00    +0.000 OA
ATOM     31  N   UNL     1     -29.668  -7.881  -2.660  0.00  0.00    +0.000 N 
ATOM     32  O   UNL     1     -28.735  -8.641  -3.346  0.00  0.00    +0.000 OA
ENDBRANCH  29  31
ENDBRANCH  19  29
ENDBRANCH  18  19
ENDBRANCH   1  18
TORSDOF 7
ENDMDL
MODEL 2
REMARK VINA RESULT:      -8.4      1.807      2.224
REMARK  Name = 
REMARK  7 active torsions:
REMARK  status: ('A' for Active; 'I' for Inactive)
REMARK    1  A    between atoms: N_2  and  C_4
REMARK    2  A    between atoms: C_4  and  C_5
REMARK    3  A    between atoms: C_5  and  O_6
REMARK    4  A    between atoms: C_5  and  C_24
REMARK    5  A    between atoms: O_6  and  C_7
REMARK    6  A    between atoms: C_13  and  C_14
REMARK    7  A    between atoms: C_15  and  C_16
REMARK                            x       y       z     vdW  Elec       q    Type
REMARK                         _______ _______ _______ _____ _____    ______ ____
ROOT
ATOM      1  C   UNL     1     -30.453  -5.295  -5.008  0.00  0.00    +0.000 A 
ATOM      2  C   UNL     1     -29.115  -5.276  -4.638  0.00  0.00    +0.000 A 
ATOM      3  C   UNL     1     -28.402  -4.081  -4.682  0.00  0.00    +0.000 A 
ATOM      4  O   UNL     1     -27.294  -3.898  -3.849  0.00  0.00    +0.000 OA
ATOM      5  C   UNL     1     -28.961  -3.004  -5.352  0.00  0.00    +0.000 A 
ATOM      6  C   UNL     1     -30.083  -3.247  -6.095  0.00  0.00    +0.000 A 
ATOM      7  C   UNL     1     -30.774  -4.457  -6.069  0.00  0.00    +0.000 A 
ENDROOT
BRANCH   7   8
ATOM      8  C   UNL     1     -32.026  -4.660  -6.769  0.00  0.00    +0.000 C 
ATOM      9  C   UNL     1     -32.928  -3.753  -7.037  0.00  0.00    +0.000 C 
BRANCH   9  10
ATOM     10  C   UNL     1     -34.301  -3.779  -6.498  0.00  0.00    +0.000 A 
ATOM     11  C   UNL     1     -35.375  -4.145  -7.306  0.00  0.00    +0.000 A 
ATOM     12  C   UNL     1     -36.521  -3.371  -7.411  0.00  0.00    +0.000 A 
ATOM     13  O   UNL     1     -37.312  -3.351  -8.564  0.00  0.00    +0.000 OA
ATOM     14  C   UNL     1     -36.707  -2.303  -6.542  0.00  0.00    +0.000 A 
ATOM     15  C   UNL     1     -35.897  -2.304  -5.413  0.00  0.00    +0.000 A 
ATOM     16  O   UNL     1     -36.084  -1.227  -4.540  0.00  0.00    +0.000 OA
ATOM     17  C   UNL     1     -34.648  -2.912  -5.468  0.00  0.00    +0.000 A 
ENDBRANCH   9  10
ENDBRANCH   7   8
BRANCH   1  18
ATOM     18  O   UNL     1     -31.409  -6.091  -4.360  0.00  0.00    +0.000 OA
BRANCH  18  19
ATOM     19  C   UNL     1     -32.308  -5.179  -3.492  0.00  0.00    +0.000 C 
BRANCH  19  20
ATOM     20  C   UNL     1     -33.492  -6.287  -3.406  0.00  0.00    +0.000 A 
ATOM     21  C   UNL     1     -34.738  -5.662  -3.336  0.00  0.00    +0.000 A 
ATOM     22  C   UNL     1     -35.858  -6.168  -3.940  0.00  0.00    +0.000 A 
ATOM     23  C   UNL     1     -35.699  -7.020  -5.018  0.00  0.00    +0.000 A 
ATOM     24  C   UNL     1     -34.507  -7.710  -5.088  0.00  0.00    +0.000 A 
ATOM     25  C   UNL     1     -33.394  -7.275  -4.379  0.00  0.00    +0.000 A 
ATOM     26  O   UNL     1     -34.714  -8.667  -6.086  0.00  0.00    +0.000 OA
ATOM     27  C   UNL     1     -35.892  -8.346  -6.820  0.00  0.00    +0.000 C 
ATOM     28  O   UNL     1     -36.285  -7.086  -6.287  0.00  0.00    +0.000 OA
ENDBRANCH  19  20
BRANCH  19  29
ATOM     29  C   UNL     1     -31.576  -5.678  -2.106  0.00  0.00    +0.000 C 
BRANCH  29  31
ATOM     30  O   UNL     1     -31.724  -4.337  -1.207  0.00  0.00    +0.000 OA
ATOM     31  N   UNL     1     -31.673  -4.726  -1.110  0.00  0.00    +0.000 N 
ATOM     32  O   UNL     1     -31.598  -4.795   0.271  0.00  0.00    +0.000 OA
ENDBRANCH  29  31
ENDBRANCH  19  29
ENDBRANCH  18  19
ENDBRANCH   1  18
TORSDOF 7
ENDMDL
MODEL 3
REMARK VINA RESULT:      -8.1     12.269     15.476
REMARK  Name = 
REMARK  7 active torsions:
REMARK  status: ('A' for Active; 'I' for Inactive)
REMARK    1  A    between atoms: N_2  and  C_4
REMARK    2  A    between atoms: C_4  and  C_5
REMARK    3  A    between atoms: C_5  and  O_6
REMARK    4  A    between atoms: C_5  and  C_24
REMARK    5  A    between atoms: O_6  and  C_7
REMARK    6  A    between atoms: C_13  and  C_14
REMARK    7  A    between atoms: C_15  and  C_16
REMARK                            x       y       z     vdW  Elec       q    Type
REMARK                         _______ _______ _______ _____ _____    ______ ____
ROOT
ATOM      1  C   UNL     1     -23.123   8.524  -2.789  0.00  0.00    +0.000 A 
ATOM      2  C   UNL     1     -22.251   9.371  -2.120  0.00  0.00    +0.000 A 
ATOM      3  C   UNL     1     -22.493  10.741  -2.106  0.00  0.00    +0.000 A 
ATOM      4  O   UNL     1     -22.004  11.527  -1.057  0.00  0.00    +0.000 OA
ATOM      5  C   UNL     1     -23.434  11.254  -2.985  0.00  0.00    +0.000 A 
ATOM      6  C   UNL     1     -23.916  10.407  -3.944  0.00  0.00    +0.000 A 
ATOM      7  C   UNL     1     -23.645   9.040  -3.969  0.00  0.00    +0.000 A 
ENDROOT
BRANCH   7   8
ATOM      8  C   UNL     1     -24.257   8.136  -4.921  0.00  0.00    +0.000 C 
ATOM      9  C   UNL     1     -24.315   8.290  -6.218  0.00  0.00    +0.000 C 
BRANCH   9  10
ATOM     10  C   UNL     1     -25.576   8.444  -6.968  0.00  0.00    +0.000 A 
ATOM     11  C   UNL     1     -25.964   7.494  -7.909  0.00  0.00    +0.000 A 
ATOM     12  C   UNL     1     -26.342   7.839  -9.198  0.00  0.00    +0.000 A 
ATOM     13  O   UNL     1     -26.167   6.980 -10.289  0.00  0.00    +0.000 OA
ATOM     14  C   UNL     1     -26.540   9.176  -9.519  0.00  0.00    +0.000 A 
ATOM     15  C   UNL     1     -26.679  10.035  -8.435  0.00  0.00    +0.000 A 
ATOM     16  O   UNL     1     -26.876  11.381  -8.759  0.00  0.00    +0.000 OA
ATOM     17  C   UNL     1     -26.065   9.719  -7.228  0.00  0.00    +0.000 A 
ENDBRANCH   9  10
ENDBRANCH   7   8
BRANCH   1  18
ATOM     18  O   UNL     1     -23.459   7.248  -2.313  0.00  0.00    +0.000 OA
BRANCH  18  19
ATOM     19  C   UNL     1     -23.100   7.169  -0.810  0.00  0.00    +0.000 C 
BRANCH  19  20
ATOM     20  C   UNL     1     -24.367   6.209  -0.473  0.00  0.00    +0.000 A 
ATOM     21  C   UNL     1     -25.225   6.135  -1.570  0.00  0.00    +0.000 A 
ATOM     22  C   UNL     1     -25.899   4.991  -1.910  0.00  0.00    +0.000 A 
ATOM     23  C   UNL     1     -25.389   3.776  -1.493  0.00  0.00    +0.000 A 
ATOM     24  C   UNL     1     -24.588   3.796  -0.370  0.00  0.00    +0.000 A 
ATOM     25  C   UNL     1     -23.998   4.979   0.058  0.00  0.00    +0.000 A 
ATOM     26  O   UNL     1     -24.438   2.450  -0.022  0.00  0.00    +0.000 OA
ATOM     27  C   UNL     1     -24.872   1.626  -1.100  0.00  0.00    +0.000 C 
ATOM     28  O   UNL     1     -25.156   2.556  -2.139  0.00  0.00    +0.000 OA
ENDBRANCH  19  20
BRANCH  19  29
ATOM     29  C   UNL     1     -22.065   5.917  -1.062  0.00  0.00    +0.000 C 
BRANCH  29  31
ATOM     30  O   UNL     1     -20.590   5.870  -0.390  0.00  0.00    +0.000 OA
ATOM     31  N   UNL     1     -20.818   6.174  -0.527  0.00  0.00    +0.000 N 
ATOM     32  O   UNL     1     -20.111   7.344  -0.302  0.00  0.00    +0.000 OA
ENDBRANCH  29  31
ENDBRANCH  19  29
ENDBRANCH  18  19
ENDBRANCH   1  18
TORSDOF 7
ENDMDL
MODEL 4
REMARK VINA RESULT:      -8.0     25.335     29.030
REMARK  Name = 
REMARK  7 active torsions:
REMARK  status: ('A' for Active; 'I' for Inactive)
REMARK    1  A    between atoms: N_2  and  C_4
REMARK    2  A    between atoms: C_4  and  C_5
REMARK    3  A    between atoms: C_5  and  O_6
REMARK    4  A    between atoms: C_5  and  C_24
REMARK    5  A    between atoms: O_6  and  C_7
REMARK    6  A    between atoms: C_13  and  C_14
REMARK    7  A    between atoms: C_15  and  C_16
REMARK                            x       y       z     vdW  Elec       q    Type
REMARK                         _______ _______ _______ _____ _____    ______ ____
ROOT
ATOM      1  C   UNL     1     -14.751  16.982   0.789  0.00  0.00    +0.000 A 
ATOM      2  C   UNL     1     -14.414  18.282   1.140  0.00  0.00    +0.000 A 
ATOM      3  C   UNL     1     -13.133  18.563   1.607  0.00  0.00    +0.000 A 
ATOM      4  O   UNL     1     -12.599  19.847   1.452  0.00  0.00    +0.000 OA
ATOM      5  C   UNL     1     -12.317  17.503   1.970  0.00  0.00    +0.000 A 
ATOM      6  C   UNL     1     -12.896  16.266   2.036  0.00  0.00    +0.000 A 
ATOM      7  C   UNL     1     -14.190  15.999   1.595  0.00  0.00    +0.000 A 
ENDROOT
BRANCH   7   8
ATOM      8  C   UNL     1     -14.747  14.662   1.562  0.00  0.00    +0.000 C 
ATOM      9  C   UNL     1     -14.594  13.729   2.465  0.00  0.00    +0.000 C 
BRANCH   9  10
ATOM     10  C   UNL     1     -13.914  12.445   2.208  0.00  0.00    +0.000 A 
ATOM     11  C   UNL     1     -14.635  11.255   2.172  0.00  0.00    +0.000 A 
ATOM     12  C   UNL     1     -14.261  10.140   2.908  0.00  0.00    +0.000 A 
ATOM     13  O   UNL     1     -15.186   9.196   3.367  0.00  0.00    +0.000 OA
ATOM     14  C   UNL     1     -13.027  10.123   3.546  0.00  0.00    +0.000 A 
ATOM     15  C   UNL     1     -12.119  11.083   3.114  0.00  0.00    +0.000 A 
ATOM     16  O   UNL     1     -10.878  11.066   3.759  0.00  0.00    +0.000 OA
ATOM     17  C   UNL     1     -12.589  12.284   2.595  0.00  0.00    +0.000 A 
ENDBRANCH   9  10
ENDBRANCH   7   8
BRANCH   1  18
ATOM     18  O   UNL     1     -15.586  16.680  -0.296  0.00  0.00    +0.000 OA
BRANCH  18  19
ATOM     19  C   UNL     1     -16.047  18.004  -0.950  0.00  0.00    +0.000 C 
BRANCH  19  20
ATOM     20  C   UNL     1     -16.198  17.323  -2.417  0.00  0.00    +0.000 A 
ATOM     21  C   UNL     1     -17.024  18.101  -3.231  0.00  0.00    +0.000 A 
ATOM     22  C   UNL     1     -16.811  18.254  -4.576  0.00  0.00    +0.000 A 
ATOM     23  C   UNL     1     -15.534  18.059  -5.068  0.00  0.00    +0.000 A 
ATOM     24  C   UNL     1     -14.706  17.241  -4.328  0.00  0.00    +0.000 A 
ATOM     25  C   UNL     1     -14.981  16.976  -2.991  0.00  0.00    +0.000 A 
ATOM     26  O   UNL     1     -13.609  17.004  -5.163  0.00  0.00    +0.000 OA
ATOM     27  C   UNL     1     -13.630  17.921  -6.252  0.00  0.00    +0.000 C 
ATOM     28  O   UNL     1     -14.715  18.787  -5.939  0.00  0.00    +0.000 OA
ENDBRANCH  19  20
BRANCH  19  29
ATOM     29  C   UNL     1     -17.614  17.735  -0.531  0.00  0.00    +0.000 C 
BRANCH  29  31
ATOM     30  O   UNL     1     -17.942  19.139   0.209  0.00  0.00    +0.000 OA
ATOM     31  N   UNL     1     -18.128  18.781   0.209  0.00  0.00    +0.000 N 
ATOM     32  O   UNL     1     -19.220  18.891   1.054  0.00  0.00    +0.000 OA
ENDBRANCH  29  31
ENDBRANCH  19  29
ENDBRANCH  18  19
ENDBRANCH   1  18
TORSDOF 7
ENDMDL
MODEL 5
REMARK VINA RESULT:      -7.7     25.471     29.799
REMARK  Name = 
REMARK  7 active torsions:
REMARK  status: ('A' for Active; 'I' for Inactive)
REMARK    1  A    between atoms: N_2  and  C_4
REMARK    2  A    between atoms: C_4  and  C_5
REMARK    3  A    between atoms: C_5  and  O_6
REMARK    4  A    between atoms: C_5  and  C_24
REMARK    5  A    between atoms: O_6  and  C_7
REMARK    6  A    between atoms: C_13  and  C_14
REMARK    7  A    between atoms: C_15  and  C_16
REMARK                            x       y       z     vdW  Elec       q    Type
REMARK                         _______ _______ _______ _____ _____    ______ ____
ROOT
ATOM      1  C   UNL     1     -14.184  17.351   1.257  0.00  0.00    +0.000 A 
ATOM      2  C   UNL     1     -14.355  18.607   1.823  0.00  0.00    +0.000 A 
ATOM      3  C   UNL     1     -13.249  19.309   2.294  0.00  0.00    +0.000 A 
ATOM      4  O   UNL     1     -13.282  20.706   2.354  0.00  0.00    +0.000 OA
ATOM      5  C   UNL     1     -12.049  18.629   2.439  0.00  0.00    +0.000 A 
ATOM      6  C   UNL     1     -12.084  17.269   2.300  0.00  0.00    +0.000 A 
ATOM      7  C   UNL     1     -13.205  16.570   1.858  0.00  0.00    +0.000 A 
ENDROOT
BRANCH   7   8
ATOM      8  C   UNL     1     -13.190  15.144   1.603  0.00  0.00    +0.000 C 
ATOM      9  C   UNL     1     -14.170  14.304   1.807  0.00  0.00    +0.000 C 
BRANCH   9  10
ATOM     10  C   UNL     1     -14.106  13.188   2.770  0.00  0.00    +0.000 A 
ATOM     11  C   UNL     1     -12.926  12.908   3.455  0.00  0.00    +0.000 A 
ATOM     12  C   UNL     1     -12.380  11.634   3.497  0.00  0.00    +0.000 A 
ATOM     13  O   UNL     1     -11.005  11.409   3.628  0.00  0.00    +0.000 OA
ATOM     14  C   UNL     1     -13.117  10.556   3.022  0.00  0.00    +0.000 A 
ATOM     15  C   UNL     1     -14.477  10.790   2.859  0.00  0.00    +0.000 A 
ATOM     16  O   UNL     1     -15.217   9.705   2.378  0.00  0.00    +0.000 OA
ATOM     17  C   UNL     1     -14.922  12.078   2.586  0.00  0.00    +0.000 A 
ENDBRANCH   9  10
ENDBRANCH   7   8
BRANCH   1  18
ATOM     18  O   UNL     1     -14.936  16.904   0.160  0.00  0.00    +0.000 OA
BRANCH  18  19
ATOM     19  C   UNL     1     -15.118  18.080  -0.829  0.00  0.00    +0.000 C 
BRANCH  19  20
ATOM     20  C   UNL     1     -14.219  17.363  -1.976  0.00  0.00    +0.000 A 
ATOM     21  C   UNL     1     -14.977  17.162  -3.131  0.00  0.00    +0.000 A 
ATOM     22  C   UNL     1     -14.454  17.276  -4.392  0.00  0.00    +0.000 A 
ATOM     23  C   UNL     1     -13.325  18.054  -4.571  0.00  0.00    +0.000 A 
ATOM     24  C   UNL     1     -12.512  18.223  -3.470  0.00  0.00    +0.000 A 
ATOM     25  C   UNL     1     -12.996  17.989  -2.188  0.00  0.00    +0.000 A 
ATOM     26  O   UNL     1     -11.346  18.802  -3.981  0.00  0.00    +0.000 OA
ATOM     27  C   UNL     1     -11.583  19.266  -5.307  0.00  0.00    +0.000 C 
ATOM     28  O   UNL     1     -12.977  19.049  -5.492  0.00  0.00    +0.000 OA
ENDBRANCH  19  20
BRANCH  19  29
ATOM     29  C   UNL     1     -16.537  17.466  -1.389  0.00  0.00    +0.000 C 
BRANCH  29  31
ATOM     30  O   UNL     1     -17.924  17.584  -0.557  0.00  0.00    +0.000 OA
ATOM     31  N   UNL     1     -17.598  17.821  -0.579  0.00  0.00    +0.000 N 
ATOM     32  O   UNL     1     -17.841  18.919   0.230  0.00  0.00    +0.000 OA
ENDBRANCH  29  31
ENDBRANCH  19  29
ENDBRANCH  18  19
ENDBRANCH   1  18
TORSDOF 7
ENDMDL
MODEL 6
REMARK VINA RESULT:      -7.5     16.238     18.960
REMARK  Name = 
REMARK  7 active torsions:
REMARK  status: ('A' for Active; 'I' for Inactive)
REMARK    1  A    between atoms: N_2  and  C_4
REMARK    2  A    between atoms: C_4  and  C_5
REMARK    3  A    between atoms: C_5  and  O_6
REMARK    4  A    between atoms: C_5  and  C_24
REMARK    5  A    between atoms: O_6  and  C_7
REMARK    6  A    between atoms: C_13  and  C_14
REMARK    7  A    between atoms: C_15  and  C_16
REMARK                            x       y       z     vdW  Elec       q    Type
REMARK                         _______ _______ _______ _____ _____    ______ ____
ROOT
ATOM      1  C   UNL     1     -17.948  -7.392   4.837  0.00  0.00    +0.000 A 
ATOM      2  C   UNL     1     -17.543  -8.301   3.871  0.00  0.00    +0.000 A 
ATOM      3  C   UNL     1     -16.200  -8.375   3.511  0.00  0.00    +0.000 A 
ATOM      4  O   UNL     1     -15.680  -9.567   2.994  0.00  0.00    +0.000 OA
ATOM      5  C   UNL     1     -15.351  -7.359   3.919  0.00  0.00    +0.000 A 
ATOM      6  C   UNL     1     -15.929  -6.252   4.477  0.00  0.00    +0.000 A 
ATOM      7  C   UNL     1     -17.280  -6.174   4.806  0.00  0.00    +0.000 A 
ENDROOT
BRANCH   7   8
ATOM      8  C   UNL     1     -17.853  -5.041   5.503  0.00  0.00    +0.000 C 
ATOM      9  C   UNL     1     -17.346  -4.420   6.536  0.00  0.00    +0.000 C 
BRANCH   9  10
ATOM     10  C   UNL     1     -17.991  -4.374   7.862  0.00  0.00    +0.000 A 
ATOM     11  C   UNL     1     -18.733  -5.455   8.329  0.00  0.00    +0.000 A 
ATOM     12  C   UNL     1     -20.020  -5.311   8.827  0.00  0.00    +0.000 A 
ATOM     13  O   UNL     1     -20.976  -6.329   8.748  0.00  0.00    +0.000 OA
ATOM     14  C   UNL     1     -20.524  -4.038   9.062  0.00  0.00    +0.000 A 
ATOM     15  C   UNL     1     -19.578  -3.021   9.106  0.00  0.00    +0.000 A 
ATOM     16  O   UNL     1     -20.088  -1.739   9.341  0.00  0.00    +0.000 OA
ATOM     17  C   UNL     1     -18.399  -3.150   8.381  0.00  0.00    +0.000 A 
ENDBRANCH   9  10
ENDBRANCH   7   8
BRANCH   1  18
ATOM     18  O   UNL     1     -18.950  -7.677   5.777  0.00  0.00    +0.000 OA
BRANCH  18  19
ATOM     19  C   UNL     1     -19.142  -9.211   5.846  0.00  0.00    +0.000 C 
BRANCH  19  20
ATOM     20  C   UNL     1     -19.321  -9.200   7.460  0.00  0.00    +0.000 A 
ATOM     21  C   UNL     1     -20.035 -10.324   7.877  0.00  0.00    +0.000 A 
ATOM     22  C   UNL     1     -19.767 -10.982   9.049  0.00  0.00    +0.000 A 
ATOM     23  C   UNL     1     -18.503 -10.863   9.598  0.00  0.00    +0.000 A 
ATOM     24  C   UNL     1     -17.790  -9.731   9.265  0.00  0.00    +0.000 A 
ATOM     25  C   UNL     1     -18.131  -8.982   8.145  0.00  0.00    +0.000 A 
ATOM     26  O   UNL     1     -16.700  -9.732  10.141  0.00  0.00    +0.000 OA
ATOM     27  C   UNL     1     -16.591 -11.007  10.767  0.00  0.00    +0.000 C 
ATOM     28  O   UNL     1     -17.587 -11.787  10.114  0.00  0.00    +0.000 OA
ENDBRANCH  19  20
BRANCH  19  29
ATOM     29  C   UNL     1     -20.754  -9.081   5.546  0.00  0.00    +0.000 C 
BRANCH  29  31
ATOM     30  O   UNL     1     -21.377  -9.428   4.090  0.00  0.00    +0.000 OA
ATOM     31  N   UNL     1     -21.083  -9.598   4.308  0.00  0.00    +0.000 N 
ATOM     32  O   UNL     1     -20.618 -10.685   3.587  0.00  0.00    +0.000 OA
ENDBRANCH  29  31
ENDBRANCH  19  29
ENDBRANCH  18  19
ENDBRANCH   1  18
TORSDOF 7
ENDMDL
MODEL 7
REMARK VINA RESULT:      -7.3     12.596     16.621
REMARK  Name = 
REMARK  7 active torsions:
REMARK  status: ('A' for Active; 'I' for Inactive)
REMARK    1  A    between atoms: N_2  and  C_4
REMARK    2  A    between atoms: C_4  and  C_5
REMARK    3  A    between atoms: C_5  and  O_6
REMARK    4  A    between atoms: C_5  and  C_24
REMARK    5  A    between atoms: O_6  and  C_7
REMARK    6  A    between atoms: C_13  and  C_14
REMARK    7  A    between atoms: C_15  and  C_16
REMARK                            x       y       z     vdW  Elec       q    Type
REMARK                         _______ _______ _______ _____ _____    ______ ____
ROOT
ATOM      1  C   UNL     1     -24.693   4.698   0.131  0.00  0.00    +0.000 A 
ATOM      2  C   UNL     1     -24.445   3.426  -0.366  0.00  0.00    +0.000 A 
ATOM      3  C   UNL     1     -25.364   2.827  -1.222  0.00  0.00    +0.000 A 
ATOM      4  O   UNL     1     -24.938   1.855  -2.135  0.00  0.00    +0.000 OA
ATOM      5  C   UNL     1     -26.624   3.393  -1.338  0.00  0.00    +0.000 A 
ATOM      6  C   UNL     1     -26.944   4.384  -0.452  0.00  0.00    +0.000 A 
ATOM      7  C   UNL     1     -26.026   4.957   0.425  0.00  0.00    +0.000 A 
ENDROOT
BRANCH   7   8
ATOM      8  C   UNL     1     -26.351   6.085   1.274  0.00  0.00    +0.000 C 
ATOM      9  C   UNL     1     -26.607   7.307   0.886  0.00  0.00    +0.000 C 
BRANCH   9  10
ATOM     10  C   UNL     1     -25.775   8.472   1.244  0.00  0.00    +0.000 A 
ATOM     11  C   UNL     1     -24.901   8.414   2.326  0.00  0.00    +0.000 A 
ATOM     12  C   UNL     1     -24.885   9.383   3.318  0.00  0.00    +0.000 A 
ATOM     13  O   UNL     1     -24.505   9.106   4.636  0.00  0.00    +0.000 OA
ATOM     14  C   UNL     1     -25.611  10.554   3.143  0.00  0.00    +0.000 A 
ATOM     15  C   UNL     1     -26.019  10.813   1.839  0.00  0.00    +0.000 A 
ATOM     16  O   UNL     1     -26.752  11.992   1.665  0.00  0.00    +0.000 OA
ATOM     17  C   UNL     1     -26.237   9.753   0.967  0.00  0.00    +0.000 A 
ENDBRANCH   9  10
ENDBRANCH   7   8
BRANCH   1  18
ATOM     18  O   UNL     1     -23.681   5.651   0.319  0.00  0.00    +0.000 OA
BRANCH  18  19
ATOM     19  C   UNL     1     -22.876   5.784  -0.995  0.00  0.00    +0.000 C 
BRANCH  19  20
ATOM     20  C   UNL     1     -23.886   6.905  -1.598  0.00  0.00    +0.000 A 
ATOM     21  C   UNL     1     -23.415   8.187  -1.311  0.00  0.00    +0.000 A 
ATOM     22  C   UNL     1     -23.548   9.239  -2.179  0.00  0.00    +0.000 A 
ATOM     23  C   UNL     1     -23.701   8.968  -3.526  0.00  0.00    +0.000 A 
ATOM     24  C   UNL     1     -24.227   7.736  -3.851  0.00  0.00    +0.000 A 
ATOM     25  C   UNL     1     -24.211   6.693  -2.932  0.00  0.00    +0.000 A 
ATOM     26  O   UNL     1     -24.519   7.828  -5.216  0.00  0.00    +0.000 OA
ATOM     27  C   UNL     1     -23.882   8.978  -5.764  0.00  0.00    +0.000 C 
ATOM     28  O   UNL     1     -23.100   9.474  -4.684  0.00  0.00    +0.000 OA
ENDBRANCH  19  20
BRANCH  19  29
ATOM     29  C   UNL     1     -21.857   6.889  -0.328  0.00  0.00    +0.000 C 
BRANCH  29  31
ATOM     30  O   UNL     1     -20.475   6.043  -0.401  0.00  0.00    +0.000 OA
ATOM     31  N   UNL     1     -20.556   6.425  -0.297  0.00  0.00    +0.000 N 
ATOM     32  O   UNL     1     -19.355   7.010   0.070  0.00  0.00    +0.000 OA
ENDBRANCH  29  31
ENDBRANCH  19  29
ENDBRANCH  18  19
ENDBRANCH   1  18
TORSDOF 7
ENDMDL
MODEL 8
REMARK VINA RESULT:      -7.1     33.453     37.784
REMARK  Name = 
REMARK  7 active torsions:
REMARK  status: ('A' for Active; 'I' for Inactive)
REMARK    1  A    between atoms: N_2  and  C_4
REMARK    2  A    between atoms: C_4  and  C_5
REMARK    3  A    between atoms: C_5  and  O_6
REMARK    4  A    between atoms: C_5  and  C_24
REMARK    5  A    between atoms: O_6  and  C_7
REMARK    6  A    between atoms: C_13  and  C_14
REMARK    7  A    between atoms: C_15  and  C_16
REMARK                            x       y       z     vdW  Elec       q    Type
REMARK                         _______ _______ _______ _____ _____    ______ ____
ROOT
ATOM      1  C   UNL     1     -12.012  18.515 -20.696  0.00  0.00    +0.000 A 
ATOM      2  C   UNL     1     -12.548  17.521 -19.889  0.00  0.00    +0.000 A 
ATOM      3  C   UNL     1     -12.978  17.832 -18.602  0.00  0.00    +0.000 A 
ATOM      4  O   UNL     1     -13.970  17.058 -17.991  0.00  0.00    +0.000 OA
ATOM      5  C   UNL     1     -12.609  19.054 -18.061  0.00  0.00    +0.000 A 
ATOM      6  C   UNL     1     -11.681  19.785 -18.750  0.00  0.00    +0.000 A 
ATOM      7  C   UNL     1     -11.233  19.450 -20.026  0.00  0.00    +0.000 A 
ENDROOT
BRANCH   7   8
ATOM      8  C   UNL     1     -10.340  20.297 -20.790  0.00  0.00    +0.000 C 
ATOM      9  C   UNL     1      -9.257  19.924 -21.420  0.00  0.00    +0.000 C 
BRANCH   9  10
ATOM     10  C   UNL     1      -7.904  20.399 -21.074  0.00  0.00    +0.000 A 
ATOM     11  C   UNL     1      -7.347  20.114 -19.831  0.00  0.00    +0.000 A 
ATOM     12  C   UNL     1      -6.791  21.097 -19.025  0.00  0.00    +0.000 A 
ATOM     13  O   UNL     1      -6.771  21.004 -17.630  0.00  0.00    +0.000 OA
ATOM     14  C   UNL     1      -6.593  22.372 -19.540  0.00  0.00    +0.000 A 
ATOM     15  C   UNL     1      -6.647  22.472 -20.925  0.00  0.00    +0.000 A 
ATOM     16  O   UNL     1      -6.449  23.756 -21.441  0.00  0.00    +0.000 OA
ATOM     17  C   UNL     1      -7.425  21.572 -21.646  0.00  0.00    +0.000 A 
ENDBRANCH   9  10
ENDBRANCH   7   8
BRANCH   1  18
ATOM     18  O   UNL     1     -12.241  18.578 -22.078  0.00  0.00    +0.000 OA
BRANCH  18  19
ATOM     19  C   UNL     1     -13.658  19.149 -22.321  0.00  0.00    +0.000 C 
BRANCH  19  20
ATOM     20  C   UNL     1     -13.193  19.966 -23.645  0.00  0.00    +0.000 A 
ATOM     21  C   UNL     1     -12.650  21.200 -23.288  0.00  0.00    +0.000 A 
ATOM     22  C   UNL     1     -11.596  21.769 -23.953  0.00  0.00    +0.000 A 
ATOM     23  C   UNL     1     -10.740  20.945 -24.661  0.00  0.00    +0.000 A 
ATOM     24  C   UNL     1     -11.258  19.742 -25.091  0.00  0.00    +0.000 A 
ATOM     25  C   UNL     1     -12.403  19.213 -24.507  0.00  0.00    +0.000 A 
ATOM     26  O   UNL     1     -10.301  19.246 -25.982  0.00  0.00    +0.000 OA
ATOM     27  C   UNL     1      -9.089  19.982 -25.840  0.00  0.00    +0.000 C 
ATOM     28  O   UNL     1      -9.346  20.839 -24.733  0.00  0.00    +0.000 OA
ENDBRANCH  19  20
BRANCH  19  29
ATOM     29  C   UNL     1     -14.117  17.811 -23.160  0.00  0.00    +0.000 C 
BRANCH  29  31
ATOM     30  O   UNL     1     -15.220  17.104 -22.206  0.00  0.00    +0.000 OA
ATOM     31  N   UNL     1     -14.887  16.965 -22.386  0.00  0.00    +0.000 N 
ATOM     32  O   UNL     1     -14.753  15.635 -22.025  0.00  0.00    +0.000 OA
ENDBRANCH  29  31
ENDBRANCH  19  29
ENDBRANCH  18  19
ENDBRANCH   1  18
TORSDOF 7
ENDMDL
MODEL 9
REMARK VINA RESULT:      -7.1     11.252     15.015
REMARK  Name = 
REMARK  7 active torsions:
REMARK  status: ('A' for Active; 'I' for Inactive)
REMARK    1  A    between atoms: N_2  and  C_4
REMARK    2  A    between atoms: C_4  and  C_5
REMARK    3  A    between atoms: C_5  and  O_6
REMARK    4  A    between atoms: C_5  and  C_24
REMARK    5  A    between atoms: O_6  and  C_7
REMARK    6  A    between atoms: C_13  and  C_14
REMARK    7  A    between atoms: C_15  and  C_16
REMARK                            x       y       z     vdW  Elec       q    Type
REMARK                         _______ _______ _______ _____ _____    ______ ____
ROOT
ATOM      1  C   UNL     1     -25.173   4.340  -0.016  0.00  0.00    +0.000 A 
ATOM      2  C   UNL     1     -24.640   3.198  -0.598  0.00  0.00    +0.000 A 
ATOM      3  C   UNL     1     -25.481   2.290  -1.235  0.00  0.00    +0.000 A 
ATOM      4  O   UNL     1     -24.981   1.471  -2.253  0.00  0.00    +0.000 OA
ATOM      5  C   UNL     1     -26.848   2.403  -1.033  0.00  0.00    +0.000 A 
ATOM      6  C   UNL     1     -27.264   3.274  -0.065  0.00  0.00    +0.000 A 
ATOM      7  C   UNL     1     -26.411   4.159   0.590  0.00  0.00    +0.000 A 
ENDROOT
BRANCH   7   8
ATOM      8  C   UNL     1     -26.885   5.156   1.528  0.00  0.00    +0.000 C 
ATOM      9  C   UNL     1     -26.781   5.116   2.830  0.00  0.00    +0.000 C 
BRANCH   9  10
ATOM     10  C   UNL     1     -27.939   5.057   3.743  0.00  0.00    +0.000 A 
ATOM     11  C   UNL     1     -27.781   5.290   5.107  0.00  0.00    +0.000 A 
ATOM     12  C   UNL     1     -28.271   4.420   6.069  0.00  0.00    +0.000 A 
ATOM     13  O   UNL     1     -27.675   4.273   7.326  0.00  0.00    +0.000 OA
ATOM     14  C   UNL     1     -29.120   3.388   5.689  0.00  0.00    +0.000 A 
ATOM     15  C   UNL     1     -29.686   3.515   4.426  0.00  0.00    +0.000 A 
ATOM     16  O   UNL     1     -30.539   2.475   4.044  0.00  0.00    +0.000 OA
ATOM     17  C   UNL     1     -29.007   4.221   3.439  0.00  0.00    +0.000 A 
ENDBRANCH   9  10
ENDBRANCH   7   8
BRANCH   1  18
ATOM     18  O   UNL     1     -24.521   5.581  -0.040  0.00  0.00    +0.000 OA
BRANCH  18  19
ATOM     19  C   UNL     1     -23.705   5.686  -1.349  0.00  0.00    +0.000 C 
BRANCH  19  20
ATOM     20  C   UNL     1     -24.406   7.090  -1.771  0.00  0.00    +0.000 A 
ATOM     21  C   UNL     1     -23.514   7.878  -2.500  0.00  0.00    +0.000 A 
ATOM     22  C   UNL     1     -23.908   8.676  -3.542  0.00  0.00    +0.000 A 
ATOM     23  C   UNL     1     -25.080   8.363  -4.207  0.00  0.00    +0.000 A 
ATOM     24  C   UNL     1     -26.017   7.641  -3.499  0.00  0.00    +0.000 A 
ATOM     25  C   UNL     1     -25.652   6.926  -2.364  0.00  0.00    +0.000 A 
ATOM     26  O   UNL     1     -27.171   7.697  -4.286  0.00  0.00    +0.000 OA
ATOM     27  C   UNL     1     -26.839   8.168  -5.589  0.00  0.00    +0.000 C 
ATOM     28  O   UNL     1     -25.419   8.255  -5.560  0.00  0.00    +0.000 OA
ENDBRANCH  19  20
BRANCH  19  29
ATOM     29  C   UNL     1     -22.446   6.410  -0.576  0.00  0.00    +0.000 C 
BRANCH  29  31
ATOM     30  O   UNL     1     -21.312   5.275  -0.813  0.00  0.00    +0.000 OA
ATOM     31  N   UNL     1     -21.300   5.642  -0.643  0.00  0.00    +0.000 N 
ATOM     32  O   UNL     1     -20.004   5.841  -0.198  0.00  0.00    +0.000 OA
ENDBRANCH  29  31
ENDBRANCH  19  29
ENDBRANCH  18  19
ENDBRANCH   1  18
TORSDOF 7
ENDMDL
MODEL 10
REMARK VINA RESULT:      -7.0     16.255     18.263
REMARK  Name = 
REMARK  7 active torsions:
REMARK  status: ('A' for Active; 'I' for Inactive)
REMARK    1  A    between atoms: N_2  and  C_4
REMARK    2  A    between atoms: C_4  and  C_5
REMARK    3  A    between atoms: C_5  and  O_6
REMARK    4  A    between atoms: C_5  and  C_24
REMARK    5  A    between atoms: O_6  and  C_7
REMARK    6  A    between atoms: C_13  and  C_14
REMARK    7  A    between atoms: C_15  and  C_16
REMARK                            x       y       z     vdW  Elec       q    Type
REMARK                         _______ _______ _______ _____ _____    ______ ____
ROOT
ATOM      1  C   UNL     1     -17.931  -8.094   5.380  0.00  0.00    +0.000 A 
ATOM      2  C   UNL     1     -17.548  -9.276   4.762  0.00  0.00    +0.000 A 
ATOM      3  C   UNL     1     -16.230  -9.443   4.348  0.00  0.00    +0.000 A 
ATOM      4  O   UNL     1     -15.690 -10.729   4.239  0.00  0.00    +0.000 OA
ATOM      5  C   UNL     1     -15.404  -8.331   4.310  0.00  0.00    +0.000 A 
ATOM      6  C   UNL     1     -15.995  -7.111   4.490  0.00  0.00    +0.000 A 
ATOM      7  C   UNL     1     -17.324  -6.951   4.876  0.00  0.00    +0.000 A 
ENDROOT
BRANCH   7   8
ATOM      8  C   UNL     1     -17.903  -5.657   5.177  0.00  0.00    +0.000 C 
ATOM      9  C   UNL     1     -17.258  -4.532   5.342  0.00  0.00    +0.000 C 
BRANCH   9  10
ATOM     10  C   UNL     1     -17.240  -3.778   6.610  0.00  0.00    +0.000 A 
ATOM     11  C   UNL     1     -17.900  -4.263   7.735  0.00  0.00    +0.000 A 
ATOM     12  C   UNL     1     -18.786  -3.486   8.467  0.00  0.00    +0.000 A 
ATOM     13  O   UNL     1     -19.859  -4.036   9.177  0.00  0.00    +0.000 OA
ATOM     14  C   UNL     1     -18.878  -2.125   8.208  0.00  0.00    +0.000 A 
ATOM     15  C   UNL     1     -17.829  -1.585   7.473  0.00  0.00    +0.000 A 
ATOM     16  O   UNL     1     -17.924  -0.215   7.211  0.00  0.00    +0.000 OA
ATOM     17  C   UNL     1     -17.133  -2.392   6.579  0.00  0.00    +0.000 A 
ENDBRANCH   9  10
ENDBRANCH   7   8
BRANCH   1  18
ATOM     18  O   UNL     1     -18.855  -8.053   6.436  0.00  0.00    +0.000 OA
BRANCH  18  19
ATOM     19  C   UNL     1     -19.579  -9.417   6.514  0.00  0.00    +0.000 C 
BRANCH  19  20
ATOM     20  C   UNL     1     -19.961  -9.218   8.080  0.00  0.00    +0.000 A 
ATOM     21  C   UNL     1     -20.005  -7.861   8.401  0.00  0.00    +0.000 A 
ATOM     22  C   UNL     1     -20.909  -7.334   9.285  0.00  0.00    +0.000 A 
ATOM     23  C   UNL     1     -22.090  -8.018   9.507  0.00  0.00    +0.000 A 
ATOM     24  C   UNL     1     -22.072  -9.376   9.266  0.00  0.00    +0.000 A 
ATOM     25  C   UNL     1     -21.083  -9.941   8.469  0.00  0.00    +0.000 A 
ATOM     26  O   UNL     1     -23.270  -9.846   9.812  0.00  0.00    +0.000 OA
ATOM     27  C   UNL     1     -24.135  -8.747  10.085  0.00  0.00    +0.000 C 
ATOM     28  O   UNL     1     -23.434  -7.630   9.549  0.00  0.00    +0.000 OA
ENDBRANCH  19  20
BRANCH  19  29
ATOM     29  C   UNL     1     -20.986  -8.768   5.964  0.00  0.00    +0.000 C 
BRANCH  29  31
ATOM     30  O   UNL     1     -21.759  -9.673   4.863  0.00  0.00    +0.000 OA
ATOM     31  N   UNL     1     -21.442  -9.424   4.838  0.00  0.00    +0.000 N 
ATOM     32  O   UNL     1     -21.004  -9.456   3.524  0.00  0.00    +0.000 OA
ENDBRANCH  29  31
ENDBRANCH  19  29
ENDBRANCH  18  19
ENDBRANCH   1  18
TORSDOF 7
ENDMDL
