MODEL 1
REMARK VINA RESULT:      -8.3      0.000      0.000
REMARK  Name = 
REMARK  4 active torsions:
REMARK  status: ('A' for Active; 'I' for Inactive)
REMARK    1  A    between atoms: C_8  and  O_9
REMARK    2  A    between atoms: O_9  and  C_10
REMARK    3  A    between atoms: C_16  and  C_17
REMARK    4  A    between atoms: C_18  and  C_19
REMARK                            x       y       z     vdW  Elec       q    Type
REMARK                         _______ _______ _______ _____ _____    ______ ____
ROOT
ATOM      1  C   UNL     1     -22.743  -3.733   8.220  0.00  0.00    +0.000 A 
ATOM      2  C   UNL     1     -22.566  -4.788   9.110  0.00  0.00    +0.000 A 
ATOM      3  C   UNL     1     -21.394  -5.032   9.787  0.00  0.00    +0.000 A 
ATOM      4  O   UNL     1     -21.047  -6.374   9.951  0.00  0.00    +0.000 OA
ATOM      5  C   UNL     1     -20.523  -3.990   9.932  0.00  0.00    +0.000 A 
ATOM      6  C   UNL     1     -20.972  -2.748   9.491  0.00  0.00    +0.000 A 
ATOM      7  C   UNL     1     -21.854  -2.680   8.413  0.00  0.00    +0.000 A 
ENDROOT
BRANCH   7   8
ATOM      8  C   UNL     1     -21.680  -1.755   7.303  0.00  0.00    +0.000 C 
ATOM      9  C   UNL     1     -20.581  -1.622   6.588  0.00  0.00    +0.000 C 
BRANCH   9  10
ATOM     10  C   UNL     1     -19.818  -0.368   6.482  0.00  0.00    +0.000 A 
ATOM     11  C   UNL     1     -18.782  -0.223   5.557  0.00  0.00    +0.000 A 
ATOM     12  C   UNL     1     -17.544   0.267   5.911  0.00  0.00    +0.000 A 
ATOM     13  O   UNL     1     -16.353  -0.191   5.333  0.00  0.00    +0.000 OA
ATOM     14  C   UNL     1     -17.422   0.957   7.111  0.00  0.00    +0.000 A 
ATOM     15  C   UNL     1     -18.540   1.120   7.921  0.00  0.00    +0.000 A 
ATOM     16  O   UNL     1     -18.725   2.276   8.687  0.00  0.00    +0.000 OA
ATOM     17  C   UNL     1     -19.681   0.376   7.635  0.00  0.00    +0.000 A 
ENDBRANCH   9  10
ENDBRANCH   7   8
BRANCH   1  18
ATOM     18  O   UNL     1     -23.779  -3.680   7.274  0.00  0.00    +0.000 OA
BRANCH  18  26
ATOM     19  C   UNL     1     -26.697  -1.153   4.532  0.00  0.00    +0.000 C 
ATOM     20  C   UNL     1     -26.727  -1.189   4.610  0.00  0.00    +0.000 C 
ATOM     21  C   UNL     1     -27.112  -0.066   3.666  0.00  0.00    +0.000 C 
ATOM     22  O   UNL     1     -27.030  -2.365   4.093  0.00  0.00    +0.000 OA
ATOM     23  C   UNL     1     -27.182  -3.298   5.295  0.00  0.00    +0.000 C 
ATOM     24  O   UNL     1     -25.803  -3.085   5.795  0.00  0.00    +0.000 OA
ATOM     25  C   UNL     1     -25.725  -2.236   6.969  0.00  0.00    +0.000 C 
ATOM     26  C   UNL     1     -25.052  -3.379   8.077  0.00  0.00    +0.000 C 
ATOM     27  C   UNL     1     -25.914  -4.574   7.457  0.00  0.00    +0.000 C 
ATOM     28  O   UNL     1     -25.472  -5.562   6.862  0.00  0.00    +0.000 OA
ATOM     29  O   UNL     1     -27.159  -4.100   7.298  0.00  0.00    +0.000 OA
ATOM     30  C   UNL     1     -27.225  -2.631   7.649  0.00  0.00    +0.000 C 
ATOM     31  C   UNL     1     -27.996  -2.111   6.224  0.00  0.00    +0.000 C 
ATOM     32  O   UNL     1     -27.063  -1.003   5.884  0.00  0.00    +0.000 OA
ENDBRANCH  18  26
ENDBRANCH   1  18
TORSDOF 4
ENDMDL
MODEL 2
REMARK VINA RESULT:      -8.1     15.221     19.480
REMARK  Name = 
REMARK  4 active torsions:
REMARK  status: ('A' for Active; 'I' for Inactive)
REMARK    1  A    between atoms: C_8  and  O_9
REMARK    2  A    between atoms: O_9  and  C_10
REMARK    3  A    between atoms: C_16  and  C_17
REMARK    4  A    between atoms: C_18  and  C_19
REMARK                            x       y       z     vdW  Elec       q    Type
REMARK                         _______ _______ _______ _____ _____    ______ ____
ROOT
ATOM      1  C   UNL     1     -35.312  -4.676  -7.309  0.00  0.00    +0.000 A 
ATOM      2  C   UNL     1     -36.390  -3.797  -7.349  0.00  0.00    +0.000 A 
ATOM      3  C   UNL     1     -36.633  -2.838  -6.393  0.00  0.00    +0.000 A 
ATOM      4  O   UNL     1     -37.972  -2.619  -6.068  0.00  0.00    +0.000 OA
ATOM      5  C   UNL     1     -35.580  -2.442  -5.618  0.00  0.00    +0.000 A 
ATOM      6  C   UNL     1     -34.333  -2.957  -5.965  0.00  0.00    +0.000 A 
ATOM      7  C   UNL     1     -34.249  -4.229  -6.530  0.00  0.00    +0.000 A 
ENDROOT
BRANCH   7   8
ATOM      8  C   UNL     1     -33.289  -5.231  -6.091  0.00  0.00    +0.000 C 
ATOM      9  C   UNL     1     -33.251  -5.774  -4.891  0.00  0.00    +0.000 C 
BRANCH   9  10
ATOM     10  C   UNL     1     -32.097  -5.677  -3.984  0.00  0.00    +0.000 A 
ATOM     11  C   UNL     1     -31.194  -4.615  -4.065  0.00  0.00    +0.000 A 
ATOM     12  C   UNL     1     -29.830  -4.810  -4.102  0.00  0.00    +0.000 A 
ATOM     13  O   UNL     1     -28.967  -4.000  -4.851  0.00  0.00    +0.000 OA
ATOM     14  C   UNL     1     -29.325  -6.040  -3.698  0.00  0.00    +0.000 A 
ATOM     15  C   UNL     1     -30.204  -7.035  -3.284  0.00  0.00    +0.000 A 
ATOM     16  O   UNL     1     -29.860  -7.939  -2.273  0.00  0.00    +0.000 OA
ATOM     17  C   UNL     1     -31.563  -6.864  -3.527  0.00  0.00    +0.000 A 
ENDBRANCH   9  10
ENDBRANCH   7   8
BRANCH   1  18
ATOM     18  O   UNL     1     -35.250  -5.862  -8.059  0.00  0.00    +0.000 OA
BRANCH  18  26
ATOM     19  C   UNL     1     -35.793  -7.736 -12.374  0.00  0.00    +0.000 C 
ATOM     20  C   UNL     1     -35.857  -7.747 -12.310  0.00  0.00    +0.000 C 
ATOM     21  C   UNL     1     -35.746  -7.793 -13.822  0.00  0.00    +0.000 C 
ATOM     22  O   UNL     1     -35.299  -8.811 -11.763  0.00  0.00    +0.000 OA
ATOM     23  C   UNL     1     -35.983  -8.962 -10.404  0.00  0.00    +0.000 C 
ATOM     24  O   UNL     1     -35.578  -7.624  -9.910  0.00  0.00    +0.000 OA
ATOM     25  C   UNL     1     -36.653  -6.649  -9.896  0.00  0.00    +0.000 C 
ATOM     26  C   UNL     1     -36.703  -6.335  -8.197  0.00  0.00    +0.000 C 
ATOM     27  C   UNL     1     -36.402  -7.866  -7.848  0.00  0.00    +0.000 C 
ATOM     28  O   UNL     1     -35.393  -8.303  -7.285  0.00  0.00    +0.000 OA
ATOM     29  O   UNL     1     -37.188  -8.600  -8.652  0.00  0.00    +0.000 OA
ATOM     30  C   UNL     1     -37.939  -7.717  -9.622  0.00  0.00    +0.000 C 
ATOM     31  C   UNL     1     -37.523  -8.564 -11.038  0.00  0.00    +0.000 C 
ATOM     32  O   UNL     1     -37.051  -7.401 -11.837  0.00  0.00    +0.000 OA
ENDBRANCH  18  26
ENDBRANCH   1  18
TORSDOF 4
ENDMDL
MODEL 3
REMARK VINA RESULT:      -8.0     15.633     20.984
REMARK  Name = 
REMARK  4 active torsions:
REMARK  status: ('A' for Active; 'I' for Inactive)
REMARK    1  A    between atoms: C_8  and  O_9
REMARK    2  A    between atoms: O_9  and  C_10
REMARK    3  A    between atoms: C_16  and  C_17
REMARK    4  A    between atoms: C_18  and  C_19
REMARK                            x       y       z     vdW  Elec       q    Type
REMARK                         _______ _______ _______ _____ _____    ______ ____
ROOT
ATOM      1  C   UNL     1     -36.202  -5.134  -7.795  0.00  0.00    +0.000 A 
ATOM      2  C   UNL     1     -36.957  -3.968  -7.872  0.00  0.00    +0.000 A 
ATOM      3  C   UNL     1     -37.849  -3.697  -8.884  0.00  0.00    +0.000 A 
ATOM      4  O   UNL     1     -37.907  -2.371  -9.315  0.00  0.00    +0.000 OA
ATOM      5  C   UNL     1     -38.331  -4.758  -9.598  0.00  0.00    +0.000 A 
ATOM      6  C   UNL     1     -37.969  -6.022  -9.140  0.00  0.00    +0.000 A 
ATOM      7  C   UNL     1     -36.735  -6.199  -8.514  0.00  0.00    +0.000 A 
ENDROOT
BRANCH   7   8
ATOM      8  C   UNL     1     -35.830  -7.292  -8.838  0.00  0.00    +0.000 C 
ATOM      9  C   UNL     1     -35.070  -7.357  -9.913  0.00  0.00    +0.000 C 
BRANCH   9  10
ATOM     10  C   UNL     1     -35.164  -8.426 -10.919  0.00  0.00    +0.000 A 
ATOM     11  C   UNL     1     -34.805  -8.205 -12.251  0.00  0.00    +0.000 A 
ATOM     12  C   UNL     1     -35.619  -8.568 -13.301  0.00  0.00    +0.000 A 
ATOM     13  O   UNL     1     -35.716  -7.819 -14.481  0.00  0.00    +0.000 OA
ATOM     14  C   UNL     1     -36.642  -9.479 -13.064  0.00  0.00    +0.000 A 
ATOM     15  C   UNL     1     -36.821  -9.984 -11.782  0.00  0.00    +0.000 A 
ATOM     16  O   UNL     1     -37.260 -11.295 -11.568  0.00  0.00    +0.000 OA
ATOM     17  C   UNL     1     -36.144  -9.377 -10.728  0.00  0.00    +0.000 A 
ENDBRANCH   9  10
ENDBRANCH   7   8
BRANCH   1  18
ATOM     18  O   UNL     1     -35.057  -5.265  -6.992  0.00  0.00    +0.000 OA
BRANCH  18  26
ATOM     19  C   UNL     1     -32.571  -5.505  -2.969  0.00  0.00    +0.000 C 
ATOM     20  C   UNL     1     -32.575  -5.428  -3.016  0.00  0.00    +0.000 C 
ATOM     21  C   UNL     1     -32.280  -5.874  -1.596  0.00  0.00    +0.000 C 
ATOM     22  O   UNL     1     -31.571  -5.719  -3.821  0.00  0.00    +0.000 OA
ATOM     23  C   UNL     1     -31.694  -4.730  -4.981  0.00  0.00    +0.000 C 
ATOM     24  O   UNL     1     -33.056  -5.164  -5.373  0.00  0.00    +0.000 OA
ATOM     25  C   UNL     1     -34.104  -4.236  -4.993  0.00  0.00    +0.000 C 
ATOM     26  C   UNL     1     -34.688  -3.836  -6.570  0.00  0.00    +0.000 C 
ATOM     27  C   UNL     1     -33.213  -3.870  -7.186  0.00  0.00    +0.000 C 
ATOM     28  O   UNL     1     -32.790  -4.666  -8.031  0.00  0.00    +0.000 OA
ATOM     29  O   UNL     1     -32.427  -3.208  -6.323  0.00  0.00    +0.000 OA
ATOM     30  C   UNL     1     -33.201  -2.806  -5.088  0.00  0.00    +0.000 C 
ATOM     31  C   UNL     1     -32.109  -3.431  -3.944  0.00  0.00    +0.000 C 
ATOM     32  O   UNL     1     -33.088  -4.205  -3.134  0.00  0.00    +0.000 OA
ENDBRANCH  18  26
ENDBRANCH   1  18
TORSDOF 4
ENDMDL
MODEL 4
REMARK VINA RESULT:      -8.0     13.479     18.547
REMARK  Name = 
REMARK  4 active torsions:
REMARK  status: ('A' for Active; 'I' for Inactive)
REMARK    1  A    between atoms: C_8  and  O_9
REMARK    2  A    between atoms: O_9  and  C_10
REMARK    3  A    between atoms: C_16  and  C_17
REMARK    4  A    between atoms: C_18  and  C_19
REMARK                            x       y       z     vdW  Elec       q    Type
REMARK                         _______ _______ _______ _____ _____    ______ ____
ROOT
ATOM      1  C   UNL     1     -34.790  -6.090  -6.289  0.00  0.00    +0.000 A 
ATOM      2  C   UNL     1     -35.178  -7.421  -6.166  0.00  0.00    +0.000 A 
ATOM      3  C   UNL     1     -36.430  -7.888  -6.493  0.00  0.00    +0.000 A 
ATOM      4  O   UNL     1     -36.954  -8.878  -5.660  0.00  0.00    +0.000 OA
ATOM      5  C   UNL     1     -37.176  -7.136  -7.356  0.00  0.00    +0.000 A 
ATOM      6  C   UNL     1     -36.538  -6.035  -7.921  0.00  0.00    +0.000 A 
ATOM      7  C   UNL     1     -35.557  -5.362  -7.194  0.00  0.00    +0.000 A 
ENDROOT
BRANCH   7   8
ATOM      8  C   UNL     1     -35.510  -3.912  -7.077  0.00  0.00    +0.000 C 
ATOM      9  C   UNL     1     -36.197  -3.196  -6.210  0.00  0.00    +0.000 C 
BRANCH   9  10
ATOM     10  C   UNL     1     -37.172  -2.162  -6.589  0.00  0.00    +0.000 A 
ATOM     11  C   UNL     1     -37.997  -2.314  -7.706  0.00  0.00    +0.000 A 
ATOM     12  C   UNL     1     -38.139  -1.326  -8.655  0.00  0.00    +0.000 A 
ATOM     13  O   UNL     1     -38.306  -1.600 -10.018  0.00  0.00    +0.000 OA
ATOM     14  C   UNL     1     -37.746  -0.033  -8.330  0.00  0.00    +0.000 A 
ATOM     15  C   UNL     1     -37.213   0.222  -7.071  0.00  0.00    +0.000 A 
ATOM     16  O   UNL     1     -37.440   1.436  -6.414  0.00  0.00    +0.000 OA
ATOM     17  C   UNL     1     -36.852  -0.859  -6.273  0.00  0.00    +0.000 A 
ENDBRANCH   9  10
ENDBRANCH   7   8
BRANCH   1  18
ATOM     18  O   UNL     1     -33.671  -5.545  -5.640  0.00  0.00    +0.000 OA
BRANCH  18  26
ATOM     19  C   UNL     1     -29.846  -7.236  -3.420  0.00  0.00    +0.000 C 
ATOM     20  C   UNL     1     -29.914  -7.199  -3.372  0.00  0.00    +0.000 C 
ATOM     21  C   UNL     1     -28.760  -8.156  -3.137  0.00  0.00    +0.000 C 
ATOM     22  O   UNL     1     -29.484  -5.955  -3.467  0.00  0.00    +0.000 OA
ATOM     23  C   UNL     1     -30.686  -5.091  -3.085  0.00  0.00    +0.000 C 
ATOM     24  O   UNL     1     -31.565  -5.614  -4.158  0.00  0.00    +0.000 OA
ATOM     25  C   UNL     1     -32.583  -6.536  -3.691  0.00  0.00    +0.000 C 
ATOM     26  C   UNL     1     -33.985  -5.630  -4.141  0.00  0.00    +0.000 C 
ATOM     27  C   UNL     1     -33.283  -4.246  -3.756  0.00  0.00    +0.000 C 
ATOM     28  O   UNL     1     -32.991  -3.333  -4.535  0.00  0.00    +0.000 OA
ATOM     29  O   UNL     1     -32.680  -4.443  -2.574  0.00  0.00    +0.000 OA
ATOM     30  C   UNL     1     -32.799  -5.887  -2.142  0.00  0.00    +0.000 C 
ATOM     31  C   UNL     1     -31.150  -6.143  -1.815  0.00  0.00    +0.000 C 
ATOM     32  O   UNL     1     -30.982  -7.395  -2.602  0.00  0.00    +0.000 OA
ENDBRANCH  18  26
ENDBRANCH   1  18
TORSDOF 4
ENDMDL
MODEL 5
REMARK VINA RESULT:      -8.0     12.327     16.294
REMARK  Name = 
REMARK  4 active torsions:
REMARK  status: ('A' for Active; 'I' for Inactive)
REMARK    1  A    between atoms: C_8  and  O_9
REMARK    2  A    between atoms: O_9  and  C_10
REMARK    3  A    between atoms: C_16  and  C_17
REMARK    4  A    between atoms: C_18  and  C_19
REMARK                            x       y       z     vdW  Elec       q    Type
REMARK                         _______ _______ _______ _____ _____    ______ ____
ROOT
ATOM      1  C   UNL     1     -24.378   8.231  -3.750  0.00  0.00    +0.000 A 
ATOM      2  C   UNL     1     -23.313   9.126  -3.735  0.00  0.00    +0.000 A 
ATOM      3  C   UNL     1     -22.678   9.543  -2.589  0.00  0.00    +0.000 A 
ATOM      4  O   UNL     1     -22.278  10.880  -2.559  0.00  0.00    +0.000 OA
ATOM      5  C   UNL     1     -22.796   8.753  -1.481  0.00  0.00    +0.000 A 
ATOM      6  C   UNL     1     -23.441   7.532  -1.663  0.00  0.00    +0.000 A 
ATOM      7  C   UNL     1     -24.452   7.426  -2.618  0.00  0.00    +0.000 A 
ENDROOT
BRANCH   7   8
ATOM      8  C   UNL     1     -25.731   6.783  -2.351  0.00  0.00    +0.000 C 
ATOM      9  C   UNL     1     -26.017   6.074  -1.278  0.00  0.00    +0.000 C 
BRANCH   9  10
ATOM     10  C   UNL     1     -26.414   4.658  -1.312  0.00  0.00    +0.000 A 
ATOM     11  C   UNL     1     -27.326   4.136  -0.391  0.00  0.00    +0.000 A 
ATOM     12  C   UNL     1     -27.079   2.976   0.310  0.00  0.00    +0.000 A 
ATOM     13  O   UNL     1     -27.500   2.782   1.632  0.00  0.00    +0.000 OA
ATOM     14  C   UNL     1     -26.084   2.121  -0.151  0.00  0.00    +0.000 A 
ATOM     15  C   UNL     1     -25.364   2.464  -1.290  0.00  0.00    +0.000 A 
ATOM     16  O   UNL     1     -24.913   1.493  -2.189  0.00  0.00    +0.000 OA
ATOM     17  C   UNL     1     -25.480   3.761  -1.782  0.00  0.00    +0.000 A 
ENDBRANCH   9  10
ENDBRANCH   7   8
BRANCH   1  18
ATOM     18  O   UNL     1     -25.247   8.077  -4.843  0.00  0.00    +0.000 OA
BRANCH  18  26
ATOM     19  C   UNL     1     -26.176   7.665  -9.468  0.00  0.00    +0.000 C 
ATOM     20  C   UNL     1     -26.187   7.745  -9.426  0.00  0.00    +0.000 C 
ATOM     21  C   UNL     1     -25.974   7.240 -10.840  0.00  0.00    +0.000 C 
ATOM     22  O   UNL     1     -27.413   7.484  -9.011  0.00  0.00    +0.000 OA
ATOM     23  C   UNL     1     -27.691   8.520  -7.921  0.00  0.00    +0.000 C 
ATOM     24  O   UNL     1     -26.556   8.106  -7.061  0.00  0.00    +0.000 OA
ATOM     25  C   UNL     1     -25.430   9.020  -7.087  0.00  0.00    +0.000 C 
ATOM     26  C   UNL     1     -25.428   9.485  -5.423  0.00  0.00    +0.000 C 
ATOM     27  C   UNL     1     -27.026   9.474  -5.360  0.00  0.00    +0.000 C 
ATOM     28  O   UNL     1     -27.726   8.712  -4.685  0.00  0.00    +0.000 OA
ATOM     29  O   UNL     1     -27.453  10.098  -6.469  0.00  0.00    +0.000 OA
ATOM     30  C   UNL     1     -26.292  10.451  -7.370  0.00  0.00    +0.000 C 
ATOM     31  C   UNL     1     -26.924   9.776  -8.798  0.00  0.00    +0.000 C 
ATOM     32  O   UNL     1     -25.733   8.972  -9.184  0.00  0.00    +0.000 OA
ENDBRANCH  18  26
ENDBRANCH   1  18
TORSDOF 4
ENDMDL
MODEL 6
REMARK VINA RESULT:      -7.9     18.053     20.529
REMARK  Name = 
REMARK  4 active torsions:
REMARK  status: ('A' for Active; 'I' for Inactive)
REMARK    1  A    between atoms: C_8  and  O_9
REMARK    2  A    between atoms: O_9  and  C_10
REMARK    3  A    between atoms: C_16  and  C_17
REMARK    4  A    between atoms: C_18  and  C_19
REMARK                            x       y       z     vdW  Elec       q    Type
REMARK                         _______ _______ _______ _____ _____    ______ ____
ROOT
ATOM      1  C   UNL     1     -32.364   6.914  -8.162  0.00  0.00    +0.000 A 
ATOM      2  C   UNL     1     -33.654   6.467  -8.433  0.00  0.00    +0.000 A 
ATOM      3  C   UNL     1     -34.713   6.612  -7.567  0.00  0.00    +0.000 A 
ATOM      4  O   UNL     1     -35.614   5.547  -7.514  0.00  0.00    +0.000 OA
ATOM      5  C   UNL     1     -34.616   7.584  -6.612  0.00  0.00    +0.000 A 
ATOM      6  C   UNL     1     -33.505   8.420  -6.697  0.00  0.00    +0.000 A 
ATOM      7  C   UNL     1     -32.306   7.920  -7.203  0.00  0.00    +0.000 A 
ENDROOT
BRANCH   7   8
ATOM      8  C   UNL     1     -31.019   8.143  -6.561  0.00  0.00    +0.000 C 
ATOM      9  C   UNL     1     -30.274   9.220  -6.705  0.00  0.00    +0.000 C 
BRANCH   9  10
ATOM     10  C   UNL     1     -28.906   9.204  -7.246  0.00  0.00    +0.000 A 
ATOM     11  C   UNL     1     -27.876   8.516  -6.602  0.00  0.00    +0.000 A 
ATOM     12  C   UNL     1     -26.654   9.097  -6.341  0.00  0.00    +0.000 A 
ATOM     13  O   UNL     1     -25.911   8.818  -5.187  0.00  0.00    +0.000 OA
ATOM     14  C   UNL     1     -26.308  10.252  -7.033  0.00  0.00    +0.000 A 
ATOM     15  C   UNL     1     -27.202  10.791  -7.951  0.00  0.00    +0.000 A 
ATOM     16  O   UNL     1     -26.758  11.427  -9.116  0.00  0.00    +0.000 OA
ATOM     17  C   UNL     1     -28.508  10.312  -7.964  0.00  0.00    +0.000 A 
ENDBRANCH   9  10
ENDBRANCH   7   8
BRANCH   1  18
ATOM     18  O   UNL     1     -31.227   6.467  -8.856  0.00  0.00    +0.000 OA
BRANCH  18  26
ATOM     19  C   UNL     1     -26.793   7.590 -10.080  0.00  0.00    +0.000 C 
ATOM     20  C   UNL     1     -26.860   7.596 -10.141  0.00  0.00    +0.000 C 
ATOM     21  C   UNL     1     -25.472   8.172  -9.936  0.00  0.00    +0.000 C 
ATOM     22  O   UNL     1     -26.797   6.334 -10.521  0.00  0.00    +0.000 OA
ATOM     23  C   UNL     1     -28.110   6.076 -11.259  0.00  0.00    +0.000 C 
ATOM     24  O   UNL     1     -28.974   6.419 -10.104  0.00  0.00    +0.000 OA
ATOM     25  C   UNL     1     -29.626   7.710 -10.216  0.00  0.00    +0.000 C 
ATOM     26  C   UNL     1     -31.270   7.178 -10.214  0.00  0.00    +0.000 C 
ATOM     27  C   UNL     1     -30.910   5.882 -11.079  0.00  0.00    +0.000 C 
ATOM     28  O   UNL     1     -30.996   4.707 -10.707  0.00  0.00    +0.000 OA
ATOM     29  O   UNL     1     -30.100   6.297 -12.065  0.00  0.00    +0.000 OA
ATOM     30  C   UNL     1     -29.763   7.762 -11.904  0.00  0.00    +0.000 C 
ATOM     31  C   UNL     1     -28.074   7.602 -12.036  0.00  0.00    +0.000 C 
ATOM     32  O   UNL     1     -27.704   8.372 -10.817  0.00  0.00    +0.000 OA
ENDBRANCH  18  26
ENDBRANCH   1  18
TORSDOF 4
ENDMDL
MODEL 7
REMARK VINA RESULT:      -7.8     30.071     33.270
REMARK  Name = 
REMARK  4 active torsions:
REMARK  status: ('A' for Active; 'I' for Inactive)
REMARK    1  A    between atoms: C_8  and  O_9
REMARK    2  A    between atoms: O_9  and  C_10
REMARK    3  A    between atoms: C_16  and  C_17
REMARK    4  A    between atoms: C_18  and  C_19
REMARK                            x       y       z     vdW  Elec       q    Type
REMARK                         _______ _______ _______ _____ _____    ______ ____
ROOT
ATOM      1  C   UNL     1     -19.407  18.544 -19.499  0.00  0.00    +0.000 A 
ATOM      2  C   UNL     1     -20.726  18.946 -19.688  0.00  0.00    +0.000 A 
ATOM      3  C   UNL     1     -21.101  19.983 -20.510  0.00  0.00    +0.000 A 
ATOM      4  O   UNL     1     -22.155  20.777 -20.056  0.00  0.00    +0.000 OA
ATOM      5  C   UNL     1     -20.226  20.356 -21.491  0.00  0.00    +0.000 A 
ATOM      6  C   UNL     1     -19.096  19.555 -21.643  0.00  0.00    +0.000 A 
ATOM      7  C   UNL     1     -18.551  18.919 -20.529  0.00  0.00    +0.000 A 
ENDROOT
BRANCH   7   8
ATOM      8  C   UNL     1     -17.126  18.923 -20.231  0.00  0.00    +0.000 C 
ATOM      9  C   UNL     1     -16.226  19.677 -20.829  0.00  0.00    +0.000 C 
BRANCH   9  10
ATOM     10  C   UNL     1     -15.078  19.145 -21.579  0.00  0.00    +0.000 A 
ATOM     11  C   UNL     1     -15.167  17.947 -22.292  0.00  0.00    +0.000 A 
ATOM     12  C   UNL     1     -14.226  16.948 -22.170  0.00  0.00    +0.000 A 
ATOM     13  O   UNL     1     -14.552  15.586 -22.230  0.00  0.00    +0.000 OA
ATOM     14  C   UNL     1     -12.992  17.262 -21.613  0.00  0.00    +0.000 A 
ATOM     15  C   UNL     1     -12.749  18.563 -21.185  0.00  0.00    +0.000 A 
ATOM     16  O   UNL     1     -11.478  19.138 -21.284  0.00  0.00    +0.000 OA
ATOM     17  C   UNL     1     -13.823  19.442 -21.090  0.00  0.00    +0.000 A 
ENDBRANCH   9  10
ENDBRANCH   7   8
BRANCH   1  18
ATOM     18  O   UNL     1     -18.986  17.749 -18.420  0.00  0.00    +0.000 OA
BRANCH  18  26
ATOM     19  C   UNL     1     -21.951  15.159 -15.789  0.00  0.00    +0.000 C 
ATOM     20  C   UNL     1     -21.912  15.233 -15.754  0.00  0.00    +0.000 C 
ATOM     21  C   UNL     1     -23.131  14.372 -15.487  0.00  0.00    +0.000 C 
ATOM     22  O   UNL     1     -20.808  14.624 -15.365  0.00  0.00    +0.000 OA
ATOM     23  C   UNL     1     -19.804  15.748 -15.108  0.00  0.00    +0.000 C 
ATOM     24  O   UNL     1     -19.861  16.286 -16.488  0.00  0.00    +0.000 OA
ATOM     25  C   UNL     1     -20.610  17.522 -16.611  0.00  0.00    +0.000 C 
ATOM     26  C   UNL     1     -19.335  18.552 -17.160  0.00  0.00    +0.000 C 
ATOM     27  C   UNL     1     -18.268  17.828 -16.215  0.00  0.00    +0.000 C 
ATOM     28  O   UNL     1     -17.292  17.167 -16.585  0.00  0.00    +0.000 OA
ATOM     29  O   UNL     1     -18.857  17.684 -15.017  0.00  0.00    +0.000 OA
ATOM     30  C   UNL     1     -20.296  18.145 -15.067  0.00  0.00    +0.000 C 
ATOM     31  C   UNL     1     -20.984  16.751 -14.376  0.00  0.00    +0.000 C 
ATOM     32  O   UNL     1     -22.031  16.512 -15.406  0.00  0.00    +0.000 OA
ENDBRANCH  18  26
ENDBRANCH   1  18
TORSDOF 4
ENDMDL
MODEL 8
REMARK VINA RESULT:      -7.8     19.170     22.108
REMARK  Name = 
REMARK  4 active torsions:
REMARK  status: ('A' for Active; 'I' for Inactive)
REMARK    1  A    between atoms: C_8  and  O_9
REMARK    2  A    between atoms: O_9  and  C_10
REMARK    3  A    between atoms: C_16  and  C_17
REMARK    4  A    between atoms: C_18  and  C_19
REMARK                            x       y       z     vdW  Elec       q    Type
REMARK                         _______ _______ _______ _____ _____    ______ ____
ROOT
ATOM      1  C   UNL     1     -32.287   7.661 -10.036  0.00  0.00    +0.000 A 
ATOM      2  C   UNL     1     -33.379   6.886 -10.414  0.00  0.00    +0.000 A 
ATOM      3  C   UNL     1     -34.688   7.282 -10.265  0.00  0.00    +0.000 A 
ATOM      4  O   UNL     1     -35.594   6.285  -9.900  0.00  0.00    +0.000 OA
ATOM      5  C   UNL     1     -34.931   8.621 -10.146  0.00  0.00    +0.000 A 
ATOM      6  C   UNL     1     -33.834   9.462 -10.321  0.00  0.00    +0.000 A 
ATOM      7  C   UNL     1     -32.565   9.021  -9.948  0.00  0.00    +0.000 A 
ENDROOT
BRANCH   7   8
ATOM      8  C   UNL     1     -31.639   9.833  -9.171  0.00  0.00    +0.000 C 
ATOM      9  C   UNL     1     -31.476  11.134  -9.300  0.00  0.00    +0.000 C 
BRANCH   9  10
ATOM     10  C   UNL     1     -30.200  11.768  -9.667  0.00  0.00    +0.000 A 
ATOM     11  C   UNL     1     -29.874  12.029 -11.000  0.00  0.00    +0.000 A 
ATOM     12  C   UNL     1     -28.661  11.670 -11.544  0.00  0.00    +0.000 A 
ATOM     13  O   UNL     1     -28.519  11.242 -12.870  0.00  0.00    +0.000 OA
ATOM     14  C   UNL     1     -27.612  11.367 -10.684  0.00  0.00    +0.000 A 
ATOM     15  C   UNL     1     -27.818  11.422  -9.310  0.00  0.00    +0.000 A 
ATOM     16  O   UNL     1     -26.806  11.826  -8.434  0.00  0.00    +0.000 OA
ATOM     17  C   UNL     1     -29.124  11.526  -8.839  0.00  0.00    +0.000 A 
ENDBRANCH   9  10
ENDBRANCH   7   8
BRANCH   1  18
ATOM     18  O   UNL     1     -30.995   7.142  -9.851  0.00  0.00    +0.000 OA
BRANCH  18  26
ATOM     19  C   UNL     1     -26.406   7.838  -8.914  0.00  0.00    +0.000 C 
ATOM     20  C   UNL     1     -26.434   7.824  -8.999  0.00  0.00    +0.000 C 
ATOM     21  C   UNL     1     -25.245   8.443  -8.289  0.00  0.00    +0.000 C 
ATOM     22  O   UNL     1     -26.396   6.507  -8.923  0.00  0.00    +0.000 OA
ATOM     23  C   UNL     1     -27.212   6.018 -10.119  0.00  0.00    +0.000 C 
ATOM     24  O   UNL     1     -28.459   6.709  -9.712  0.00  0.00    +0.000 OA
ATOM     25  C   UNL     1     -28.762   7.892 -10.495  0.00  0.00    +0.000 C 
ATOM     26  C   UNL     1     -30.264   7.379 -11.179  0.00  0.00    +0.000 C 
ATOM     27  C   UNL     1     -29.743   5.876 -11.339  0.00  0.00    +0.000 C 
ATOM     28  O   UNL     1     -30.182   4.882 -10.750  0.00  0.00    +0.000 OA
ATOM     29  O   UNL     1     -28.504   5.957 -11.847  0.00  0.00    +0.000 OA
ATOM     30  C   UNL     1     -28.059   7.397 -11.955  0.00  0.00    +0.000 C 
ATOM     31  C   UNL     1     -26.565   7.214 -11.161  0.00  0.00    +0.000 C 
ATOM     32  O   UNL     1     -26.712   8.336 -10.195  0.00  0.00    +0.000 OA
ENDBRANCH  18  26
ENDBRANCH   1  18
TORSDOF 4
ENDMDL
MODEL 9
REMARK VINA RESULT:      -7.8     14.967     19.861
REMARK  Name = 
REMARK  4 active torsions:
REMARK  status: ('A' for Active; 'I' for Inactive)
REMARK    1  A    between atoms: C_8  and  O_9
REMARK    2  A    between atoms: O_9  and  C_10
REMARK    3  A    between atoms: C_16  and  C_17
REMARK    4  A    between atoms: C_18  and  C_19
REMARK                            x       y       z     vdW  Elec       q    Type
REMARK                         _______ _______ _______ _____ _____    ______ ____
ROOT
ATOM      1  C   UNL     1     -35.099  -8.582  -5.222  0.00  0.00    +0.000 A 
ATOM      2  C   UNL     1     -35.482  -9.153  -4.013  0.00  0.00    +0.000 A 
ATOM      3  C   UNL     1     -36.432 -10.142  -3.898  0.00  0.00    +0.000 A 
ATOM      4  O   UNL     1     -37.270 -10.064  -2.784  0.00  0.00    +0.000 OA
ATOM      5  C   UNL     1     -36.701 -10.888  -5.011  0.00  0.00    +0.000 A 
ATOM      6  C   UNL     1     -35.887 -10.656  -6.117  0.00  0.00    +0.000 A 
ATOM      7  C   UNL     1     -35.366  -9.380  -6.330  0.00  0.00    +0.000 A 
ENDROOT
BRANCH   7   8
ATOM      8  C   UNL     1     -35.398  -8.716  -7.626  0.00  0.00    +0.000 C 
ATOM      9  C   UNL     1     -36.074  -9.133  -8.678  0.00  0.00    +0.000 C 
BRANCH   9  10
ATOM     10  C   UNL     1     -35.453  -9.488  -9.963  0.00  0.00    +0.000 A 
ATOM     11  C   UNL     1     -34.940  -8.510 -10.819  0.00  0.00    +0.000 A 
ATOM     12  C   UNL     1     -35.249  -8.473 -12.161  0.00  0.00    +0.000 A 
ATOM     13  O   UNL     1     -35.400  -7.276 -12.873  0.00  0.00    +0.000 OA
ATOM     14  C   UNL     1     -35.784  -9.612 -12.750  0.00  0.00    +0.000 A 
ATOM     15  C   UNL     1     -36.003 -10.744 -11.973  0.00  0.00    +0.000 A 
ATOM     16  O   UNL     1     -35.849 -12.032 -12.497  0.00  0.00    +0.000 OA
ATOM     17  C   UNL     1     -35.924 -10.623 -10.589  0.00  0.00    +0.000 A 
ENDBRANCH   9  10
ENDBRANCH   7   8
BRANCH   1  18
ATOM     18  O   UNL     1     -34.417  -7.359  -5.321  0.00  0.00    +0.000 OA
BRANCH  18  26
ATOM     19  C   UNL     1     -30.575  -4.716  -6.144  0.00  0.00    +0.000 C 
ATOM     20  C   UNL     1     -30.601  -4.734  -6.058  0.00  0.00    +0.000 C 
ATOM     21  C   UNL     1     -29.340  -4.316  -6.791  0.00  0.00    +0.000 C 
ATOM     22  O   UNL     1     -31.448  -3.727  -5.964  0.00  0.00    +0.000 OA
ATOM     23  C   UNL     1     -32.319  -4.054  -4.751  0.00  0.00    +0.000 C 
ATOM     24  O   UNL     1     -32.816  -5.341  -5.295  0.00  0.00    +0.000 OA
ATOM     25  C   UNL     1     -32.218  -6.512  -4.683  0.00  0.00    +0.000 C 
ATOM     26  C   UNL     1     -33.644  -7.213  -4.004  0.00  0.00    +0.000 C 
ATOM     27  C   UNL     1     -34.241  -5.777  -3.632  0.00  0.00    +0.000 C 
ATOM     28  O   UNL     1     -35.258  -5.262  -4.107  0.00  0.00    +0.000 OA
ATOM     29  O   UNL     1     -33.234  -5.078  -3.086  0.00  0.00    +0.000 OA
ATOM     30  C   UNL     1     -31.942  -5.861  -3.144  0.00  0.00    +0.000 C 
ATOM     31  C   UNL     1     -30.989  -4.637  -3.844  0.00  0.00    +0.000 C 
ATOM     32  O   UNL     1     -30.407  -5.445  -4.950  0.00  0.00    +0.000 OA
ENDBRANCH  18  26
ENDBRANCH   1  18
TORSDOF 4
ENDMDL
MODEL 10
REMARK VINA RESULT:      -7.8     14.479     18.862
REMARK  Name = 
REMARK  4 active torsions:
REMARK  status: ('A' for Active; 'I' for Inactive)
REMARK    1  A    between atoms: C_8  and  O_9
REMARK    2  A    between atoms: O_9  and  C_10
REMARK    3  A    between atoms: C_16  and  C_17
REMARK    4  A    between atoms: C_18  and  C_19
REMARK                            x       y       z     vdW  Elec       q    Type
REMARK                         _______ _______ _______ _____ _____    ______ ____
ROOT
ATOM      1  C   UNL     1     -35.413  -7.187  -6.360  0.00  0.00    +0.000 A 
ATOM      2  C   UNL     1     -35.026  -8.516  -6.218  0.00  0.00    +0.000 A 
ATOM      3  C   UNL     1     -35.885  -9.583  -6.348  0.00  0.00    +0.000 A 
ATOM      4  O   UNL     1     -35.676 -10.650  -5.474  0.00  0.00    +0.000 OA
ATOM      5  C   UNL     1     -37.040  -9.378  -7.049  0.00  0.00    +0.000 A 
ATOM      6  C   UNL     1     -37.167  -8.141  -7.676  0.00  0.00    +0.000 A 
ATOM      7  C   UNL     1     -36.579  -7.016  -7.099  0.00  0.00    +0.000 A 
ENDROOT
BRANCH   7   8
ATOM      8  C   UNL     1     -37.276  -5.747  -6.943  0.00  0.00    +0.000 C 
ATOM      9  C   UNL     1     -37.465  -4.861  -7.900  0.00  0.00    +0.000 C 
BRANCH   9  10
ATOM     10  C   UNL     1     -36.962  -3.479  -7.849  0.00  0.00    +0.000 A 
ATOM     11  C   UNL     1     -36.227  -3.012  -6.756  0.00  0.00    +0.000 A 
ATOM     12  C   UNL     1     -36.526  -1.826  -6.123  0.00  0.00    +0.000 A 
ATOM     13  O   UNL     1     -36.378  -1.644  -4.742  0.00  0.00    +0.000 OA
ATOM     14  C   UNL     1     -37.332  -0.906  -6.783  0.00  0.00    +0.000 A 
ATOM     15  C   UNL     1     -37.822  -1.213  -8.048  0.00  0.00    +0.000 A 
ATOM     16  O   UNL     1     -37.998  -0.224  -9.022  0.00  0.00    +0.000 OA
ATOM     17  C   UNL     1     -37.705  -2.522  -8.505  0.00  0.00    +0.000 A 
ENDBRANCH   9  10
ENDBRANCH   7   8
BRANCH   1  18
ATOM     18  O   UNL     1     -34.654  -6.104  -5.887  0.00  0.00    +0.000 OA
BRANCH  18  26
ATOM     19  C   UNL     1     -30.310  -4.228  -6.074  0.00  0.00    +0.000 C 
ATOM     20  C   UNL     1     -30.337  -4.273  -6.000  0.00  0.00    +0.000 C 
ATOM     21  C   UNL     1     -29.028  -3.877  -6.656  0.00  0.00    +0.000 C 
ATOM     22  O   UNL     1     -30.918  -3.230  -5.438  0.00  0.00    +0.000 OA
ATOM     23  C   UNL     1     -31.817  -3.816  -4.349  0.00  0.00    +0.000 C 
ATOM     24  O   UNL     1     -32.617  -4.648  -5.280  0.00  0.00    +0.000 OA
ATOM     25  C   UNL     1     -32.303  -6.063  -5.227  0.00  0.00    +0.000 C 
ATOM     26  C   UNL     1     -33.842  -6.656  -4.708  0.00  0.00    +0.000 C 
ATOM     27  C   UNL     1     -34.071  -5.391  -3.757  0.00  0.00    +0.000 C 
ATOM     28  O   UNL     1     -34.946  -4.528  -3.885  0.00  0.00    +0.000 OA
ATOM     29  O   UNL     1     -32.915  -5.194  -3.104  0.00  0.00    +0.000 OA
ATOM     30  C   UNL     1     -31.849  -6.145  -3.597  0.00  0.00    +0.000 C 
ATOM     31  C   UNL     1     -30.646  -4.976  -3.885  0.00  0.00    +0.000 C 
ATOM     32  O   UNL     1     -30.296  -5.386  -5.272  0.00  0.00    +0.000 OA
ENDBRANCH  18  26
ENDBRANCH   1  18
TORSDOF 4
ENDMDL
