MODEL 1
REMARK VINA RESULT:      -6.5      0.000      0.000
REMARK  Name = 
REMARK  12 active torsions:
REMARK  status: ('A' for Active; 'I' for Inactive)
REMARK    1  A    between atoms: C_2  and  O_3
REMARK    2  A    between atoms: O_3  and  C_4
REMARK    3  A    between atoms: C_4  and  C_6
REMARK    4  A    between atoms: C_6  and  C_7
REMARK    5  A    between atoms: C_7  and  C_8
REMARK    6  A    between atoms: C_7  and  O_14
REMARK    7  A    between atoms: C_8  and  C_9
REMARK    8  A    between atoms: C_9  and  O_11
REMARK    9  A    between atoms: O_11  and  C_12
REMARK   10  A    between atoms: O_14  and  C_15
REMARK   11  A    between atoms: C_21  and  C_22
REMARK   12  A    between atoms: C_23  and  C_24
REMARK                            x       y       z     vdW  Elec       q    Type
REMARK                         _______ _______ _______ _____ _____    ______ ____
ROOT
ATOM      1  C   UNL     1     -32.901  -4.550  -3.157  0.00  0.00    +0.000 A 
ATOM      2  C   UNL     1     -32.090  -4.209  -2.081  0.00  0.00    +0.000 A 
ATOM      3  C   UNL     1     -31.622  -5.179  -1.202  0.00  0.00    +0.000 A 
ATOM      4  O   UNL     1     -31.498  -4.903   0.163  0.00  0.00    +0.000 OA
ATOM      5  C   UNL     1     -31.689  -6.482  -1.680  0.00  0.00    +0.000 A 
ATOM      6  C   UNL     1     -32.608  -6.825  -2.664  0.00  0.00    +0.000 A 
ATOM      7  C   UNL     1     -33.344  -5.855  -3.332  0.00  0.00    +0.000 A 
ENDROOT
BRANCH   7   8
ATOM      8  C   UNL     1     -34.736  -6.165  -3.683  0.00  0.00    +0.000 C 
ATOM      9  C   UNL     1     -35.385  -7.224  -3.275  0.00  0.00    +0.000 C 
BRANCH   9  10
ATOM     10  C   UNL     1     -35.930  -8.260  -4.162  0.00  0.00    +0.000 A 
ATOM     11  C   UNL     1     -35.712  -8.236  -5.525  0.00  0.00    +0.000 A 
ATOM     12  C   UNL     1     -35.489  -9.415  -6.225  0.00  0.00    +0.000 A 
ATOM     13  O   UNL     1     -35.257  -9.417  -7.596  0.00  0.00    +0.000 OA
ATOM     14  C   UNL     1     -35.724 -10.647  -5.628  0.00  0.00    +0.000 A 
ATOM     15  C   UNL     1     -36.031 -10.685  -4.288  0.00  0.00    +0.000 A 
ATOM     16  O   UNL     1     -35.961 -11.939  -3.672  0.00  0.00    +0.000 OA
ATOM     17  C   UNL     1     -36.077  -9.513  -3.585  0.00  0.00    +0.000 A 
ENDBRANCH   9  10
ENDBRANCH   7   8
BRANCH   1  18
ATOM     18  O   UNL     1     -33.495  -3.599  -3.976  0.00  0.00    +0.000 OA
BRANCH  18  19
ATOM     19  C   UNL     1     -33.218  -3.437  -5.342  0.00  0.00    +0.000 C 
BRANCH  19  20
ATOM     20  C   UNL     1     -31.780  -3.100  -5.629  0.00  0.00    +0.000 C 
BRANCH  20  21
ATOM     21  C   UNL     1     -31.113  -4.088  -6.505  0.00  0.00    +0.000 C 
ATOM     22  O   UNL     1     -31.592  -4.215  -7.670  0.00  0.00    +0.000 OA
BRANCH  21  23
ATOM     23  O   UNL     1     -29.796  -4.492  -6.325  0.00  0.00    +0.000 OA
BRANCH  23  25
ATOM     24  C   UNL     1     -29.137  -5.111  -4.073  0.00  0.00    +0.000 C 
ATOM     25  C   UNL     1     -29.128  -4.065  -5.167  0.00  0.00    +0.000 C 
ENDBRANCH  23  25
ENDBRANCH  21  23
ENDBRANCH  20  21
ENDBRANCH  19  20
BRANCH  19  26
ATOM     26  C   UNL     1     -34.070  -2.387  -6.005  0.00  0.00    +0.000 C 
BRANCH  26  27
ATOM     27  C   UNL     1     -35.507  -2.513  -5.681  0.00  0.00    +0.000 C 
ATOM     28  O   UNL     1     -36.227  -1.561  -5.290  0.00  0.00    +0.000 OA
BRANCH  27  29
ATOM     29  O   UNL     1     -36.149  -3.684  -6.042  0.00  0.00    +0.000 OA
BRANCH  29  30
ATOM     30  C   UNL     1     -36.235  -4.112  -7.379  0.00  0.00    +0.000 C 
ATOM     31  C   UNL     1     -35.465  -5.389  -7.632  0.00  0.00    +0.000 C 
ENDBRANCH  29  30
ENDBRANCH  27  29
ENDBRANCH  26  27
ENDBRANCH  19  26
ENDBRANCH  18  19
ENDBRANCH   1  18
TORSDOF 12
ENDMDL
MODEL 2
REMARK VINA RESULT:      -6.3     16.670     20.468
REMARK  Name = 
REMARK  12 active torsions:
REMARK  status: ('A' for Active; 'I' for Inactive)
REMARK    1  A    between atoms: C_2  and  O_3
REMARK    2  A    between atoms: O_3  and  C_4
REMARK    3  A    between atoms: C_4  and  C_6
REMARK    4  A    between atoms: C_6  and  C_7
REMARK    5  A    between atoms: C_7  and  C_8
REMARK    6  A    between atoms: C_7  and  O_14
REMARK    7  A    between atoms: C_8  and  C_9
REMARK    8  A    between atoms: C_9  and  O_11
REMARK    9  A    between atoms: O_11  and  C_12
REMARK   10  A    between atoms: O_14  and  C_15
REMARK   11  A    between atoms: C_21  and  C_22
REMARK   12  A    between atoms: C_23  and  C_24
REMARK                            x       y       z     vdW  Elec       q    Type
REMARK                         _______ _______ _______ _____ _____    ______ ____
ROOT
ATOM      1  C   UNL     1     -18.698  -6.640   7.727  0.00  0.00    +0.000 A 
ATOM      2  C   UNL     1     -18.999  -7.400   8.852  0.00  0.00    +0.000 A 
ATOM      3  C   UNL     1     -19.594  -6.822   9.968  0.00  0.00    +0.000 A 
ATOM      4  O   UNL     1     -19.249  -7.240  11.257  0.00  0.00    +0.000 OA
ATOM      5  C   UNL     1     -20.195  -5.590   9.738  0.00  0.00    +0.000 A 
ATOM      6  C   UNL     1     -19.778  -4.789   8.683  0.00  0.00    +0.000 A 
ATOM      7  C   UNL     1     -18.896  -5.265   7.720  0.00  0.00    +0.000 A 
ENDROOT
BRANCH   7   8
ATOM      8  C   UNL     1     -17.895  -4.336   7.182  0.00  0.00    +0.000 C 
ATOM      9  C   UNL     1     -17.595  -3.180   7.713  0.00  0.00    +0.000 C 
BRANCH   9  10
ATOM     10  C   UNL     1     -17.768  -1.885   7.041  0.00  0.00    +0.000 A 
ATOM     11  C   UNL     1     -18.421  -0.833   7.649  0.00  0.00    +0.000 A 
ATOM     12  C   UNL     1     -17.969   0.470   7.482  0.00  0.00    +0.000 A 
ATOM     13  O   UNL     1     -18.604   1.546   8.092  0.00  0.00    +0.000 OA
ATOM     14  C   UNL     1     -17.019   0.770   6.514  0.00  0.00    +0.000 A 
ATOM     15  C   UNL     1     -16.420  -0.263   5.832  0.00  0.00    +0.000 A 
ATOM     16  O   UNL     1     -15.273   0.062   5.099  0.00  0.00    +0.000 OA
ATOM     17  C   UNL     1     -16.766  -1.549   6.142  0.00  0.00    +0.000 A 
ENDBRANCH   9  10
ENDBRANCH   7   8
BRANCH   1  18
ATOM     18  O   UNL     1     -17.986  -7.150   6.650  0.00  0.00    +0.000 OA
BRANCH  18  19
ATOM     19  C   UNL     1     -18.410  -8.221   5.850  0.00  0.00    +0.000 C 
BRANCH  19  20
ATOM     20  C   UNL     1     -19.901  -8.427   5.859  0.00  0.00    +0.000 C 
BRANCH  20  21
ATOM     21  C   UNL     1     -20.442  -8.832   4.544  0.00  0.00    +0.000 C 
ATOM     22  O   UNL     1     -19.701  -8.611   3.541  0.00  0.00    +0.000 OA
BRANCH  21  23
ATOM     23  O   UNL     1     -21.415  -9.813   4.395  0.00  0.00    +0.000 OA
BRANCH  23  25
ATOM     24  C   UNL     1     -20.315 -11.977   4.423  0.00  0.00    +0.000 C 
ATOM     25  C   UNL     1     -21.257 -11.012   5.110  0.00  0.00    +0.000 C 
ENDBRANCH  23  25
ENDBRANCH  21  23
ENDBRANCH  20  21
ENDBRANCH  19  20
BRANCH  19  26
ATOM     26  C   UNL     1     -17.769  -9.533   6.218  0.00  0.00    +0.000 C 
BRANCH  26  27
ATOM     27  C   UNL     1     -16.675  -9.924   5.304  0.00  0.00    +0.000 C 
ATOM     28  O   UNL     1     -16.562 -11.063   4.787  0.00  0.00    +0.000 OA
BRANCH  27  29
ATOM     29  O   UNL     1     -15.857  -8.923   4.812  0.00  0.00    +0.000 OA
BRANCH  29  30
ATOM     30  C   UNL     1     -15.934  -8.477   3.480  0.00  0.00    +0.000 C 
ATOM     31  C   UNL     1     -15.782  -6.977   3.358  0.00  0.00    +0.000 C 
ENDBRANCH  29  30
ENDBRANCH  27  29
ENDBRANCH  26  27
ENDBRANCH  19  26
ENDBRANCH  18  19
ENDBRANCH   1  18
TORSDOF 12
ENDMDL
MODEL 3
REMARK VINA RESULT:      -6.1      1.688      4.625
REMARK  Name = 
REMARK  12 active torsions:
REMARK  status: ('A' for Active; 'I' for Inactive)
REMARK    1  A    between atoms: C_2  and  O_3
REMARK    2  A    between atoms: O_3  and  C_4
REMARK    3  A    between atoms: C_4  and  C_6
REMARK    4  A    between atoms: C_6  and  C_7
REMARK    5  A    between atoms: C_7  and  C_8
REMARK    6  A    between atoms: C_7  and  O_14
REMARK    7  A    between atoms: C_8  and  C_9
REMARK    8  A    between atoms: C_9  and  O_11
REMARK    9  A    between atoms: O_11  and  C_12
REMARK   10  A    between atoms: O_14  and  C_15
REMARK   11  A    between atoms: C_21  and  C_22
REMARK   12  A    between atoms: C_23  and  C_24
REMARK                            x       y       z     vdW  Elec       q    Type
REMARK                         _______ _______ _______ _____ _____    ______ ____
ROOT
ATOM      1  C   UNL     1     -32.951  -5.358  -3.457  0.00  0.00    +0.000 A 
ATOM      2  C   UNL     1     -32.129  -4.790  -2.489  0.00  0.00    +0.000 A 
ATOM      3  C   UNL     1     -31.938  -5.410  -1.260  0.00  0.00    +0.000 A 
ATOM      4  O   UNL     1     -31.811  -4.652  -0.091  0.00  0.00    +0.000 OA
ATOM      5  C   UNL     1     -32.288  -6.754  -1.222  0.00  0.00    +0.000 A 
ATOM      6  C   UNL     1     -33.219  -7.266  -2.117  0.00  0.00    +0.000 A 
ATOM      7  C   UNL     1     -33.679  -6.510  -3.189  0.00  0.00    +0.000 A 
ENDROOT
BRANCH   7   8
ATOM      8  C   UNL     1     -35.088  -6.650  -3.576  0.00  0.00    +0.000 C 
ATOM      9  C   UNL     1     -35.537  -7.524  -4.438  0.00  0.00    +0.000 C 
BRANCH   9  10
ATOM     10  C   UNL     1     -36.212  -7.182  -5.697  0.00  0.00    +0.000 A 
ATOM     11  C   UNL     1     -36.528  -5.877  -6.019  0.00  0.00    +0.000 A 
ATOM     12  C   UNL     1     -36.408  -5.425  -7.327  0.00  0.00    +0.000 A 
ATOM     13  O   UNL     1     -36.710  -4.113  -7.675  0.00  0.00    +0.000 OA
ATOM     14  C   UNL     1     -36.213  -6.320  -8.370  0.00  0.00    +0.000 A 
ATOM     15  C   UNL     1     -35.985  -7.644  -8.073  0.00  0.00    +0.000 A 
ATOM     16  O   UNL     1     -35.500  -8.438  -9.117  0.00  0.00    +0.000 OA
ATOM     17  C   UNL     1     -35.940  -8.029  -6.761  0.00  0.00    +0.000 A 
ENDBRANCH   9  10
ENDBRANCH   7   8
BRANCH   1  18
ATOM     18  O   UNL     1     -33.270  -4.707  -4.641  0.00  0.00    +0.000 OA
BRANCH  18  19
ATOM     19  C   UNL     1     -33.175  -3.322  -4.840  0.00  0.00    +0.000 C 
BRANCH  19  20
ATOM     20  C   UNL     1     -34.332  -2.742  -5.607  0.00  0.00    +0.000 C 
BRANCH  20  21
ATOM     21  C   UNL     1     -35.501  -2.435  -4.755  0.00  0.00    +0.000 C 
ATOM     22  O   UNL     1     -35.696  -3.208  -3.772  0.00  0.00    +0.000 OA
BRANCH  21  23
ATOM     23  O   UNL     1     -36.065  -1.167  -4.672  0.00  0.00    +0.000 OA
BRANCH  23  25
ATOM     24  C   UNL     1     -37.198  -0.497  -6.712  0.00  0.00    +0.000 C 
ATOM     25  C   UNL     1     -37.316  -0.962  -5.276  0.00  0.00    +0.000 C 
ENDBRANCH  23  25
ENDBRANCH  21  23
ENDBRANCH  20  21
ENDBRANCH  19  20
BRANCH  19  26
ATOM     26  C   UNL     1     -31.910  -2.905  -5.544  0.00  0.00    +0.000 C 
BRANCH  26  27
ATOM     27  C   UNL     1     -31.353  -3.961  -6.416  0.00  0.00    +0.000 C 
ATOM     28  O   UNL     1     -31.705  -4.149  -7.606  0.00  0.00    +0.000 OA
BRANCH  27  29
ATOM     29  O   UNL     1     -30.227  -4.633  -5.976  0.00  0.00    +0.000 OA
BRANCH  29  30
ATOM     30  C   UNL     1     -29.207  -3.993  -5.248  0.00  0.00    +0.000 C 
ATOM     31  C   UNL     1     -28.856  -4.724  -3.971  0.00  0.00    +0.000 C 
ENDBRANCH  29  30
ENDBRANCH  27  29
ENDBRANCH  26  27
ENDBRANCH  19  26
ENDBRANCH  18  19
ENDBRANCH   1  18
TORSDOF 12
ENDMDL
MODEL 4
REMARK VINA RESULT:      -6.1      2.022      6.126
REMARK  Name = 
REMARK  12 active torsions:
REMARK  status: ('A' for Active; 'I' for Inactive)
REMARK    1  A    between atoms: C_2  and  O_3
REMARK    2  A    between atoms: O_3  and  C_4
REMARK    3  A    between atoms: C_4  and  C_6
REMARK    4  A    between atoms: C_6  and  C_7
REMARK    5  A    between atoms: C_7  and  C_8
REMARK    6  A    between atoms: C_7  and  O_14
REMARK    7  A    between atoms: C_8  and  C_9
REMARK    8  A    between atoms: C_9  and  O_11
REMARK    9  A    between atoms: O_11  and  C_12
REMARK   10  A    between atoms: O_14  and  C_15
REMARK   11  A    between atoms: C_21  and  C_22
REMARK   12  A    between atoms: C_23  and  C_24
REMARK                            x       y       z     vdW  Elec       q    Type
REMARK                         _______ _______ _______ _____ _____    ______ ____
ROOT
ATOM      1  C   UNL     1     -32.452  -5.042  -5.748  0.00  0.00    +0.000 A 
ATOM      2  C   UNL     1     -31.147  -5.406  -6.061  0.00  0.00    +0.000 A 
ATOM      3  C   UNL     1     -30.142  -4.451  -6.159  0.00  0.00    +0.000 A 
ATOM      4  O   UNL     1     -29.131  -4.576  -7.117  0.00  0.00    +0.000 OA
ATOM      5  C   UNL     1     -30.436  -3.230  -5.565  0.00  0.00    +0.000 A 
ATOM      6  C   UNL     1     -31.755  -2.831  -5.390  0.00  0.00    +0.000 A 
ATOM      7  C   UNL     1     -32.809  -3.706  -5.619  0.00  0.00    +0.000 A 
ENDROOT
BRANCH   7   8
ATOM      8  C   UNL     1     -34.037  -3.165  -6.216  0.00  0.00    +0.000 C 
ATOM      9  C   UNL     1     -34.882  -2.385  -5.596  0.00  0.00    +0.000 C 
BRANCH   9  10
ATOM     10  C   UNL     1     -36.289  -2.721  -5.337  0.00  0.00    +0.000 A 
ATOM     11  C   UNL     1     -36.853  -3.891  -5.802  0.00  0.00    +0.000 A 
ATOM     12  C   UNL     1     -37.767  -4.592  -5.025  0.00  0.00    +0.000 A 
ATOM     13  O   UNL     1     -38.341  -5.778  -5.467  0.00  0.00    +0.000 OA
ATOM     14  C   UNL     1     -38.317  -4.015  -3.888  0.00  0.00    +0.000 A 
ATOM     15  C   UNL     1     -37.828  -2.803  -3.458  0.00  0.00    +0.000 A 
ATOM     16  O   UNL     1     -38.192  -2.413  -2.164  0.00  0.00    +0.000 OA
ATOM     17  C   UNL     1     -36.807  -2.217  -4.153  0.00  0.00    +0.000 A 
ENDBRANCH   9  10
ENDBRANCH   7   8
BRANCH   1  18
ATOM     18  O   UNL     1     -33.506  -5.946  -5.772  0.00  0.00    +0.000 OA
BRANCH  18  19
ATOM     19  C   UNL     1     -33.930  -6.704  -4.670  0.00  0.00    +0.000 C 
BRANCH  19  20
ATOM     20  C   UNL     1     -35.234  -7.419  -4.897  0.00  0.00    +0.000 C 
BRANCH  20  21
ATOM     21  C   UNL     1     -35.332  -8.044  -6.235  0.00  0.00    +0.000 C 
ATOM     22  O   UNL     1     -34.841  -9.205  -6.348  0.00  0.00    +0.000 OA
BRANCH  21  23
ATOM     23  O   UNL     1     -36.292  -7.679  -7.171  0.00  0.00    +0.000 OA
BRANCH  23  25
ATOM     24  C   UNL     1     -35.818  -7.254  -9.514  0.00  0.00    +0.000 C 
ATOM     25  C   UNL     1     -35.953  -6.695  -8.113  0.00  0.00    +0.000 C 
ENDBRANCH  23  25
ENDBRANCH  21  23
ENDBRANCH  20  21
ENDBRANCH  19  20
BRANCH  19  26
ATOM     26  C   UNL     1     -34.070  -5.896  -3.407  0.00  0.00    +0.000 C 
BRANCH  26  27
ATOM     27  C   UNL     1     -33.262  -6.422  -2.286  0.00  0.00    +0.000 C 
ATOM     28  O   UNL     1     -33.035  -7.641  -2.092  0.00  0.00    +0.000 OA
BRANCH  27  29
ATOM     29  O   UNL     1     -32.529  -5.516  -1.540  0.00  0.00    +0.000 OA
BRANCH  29  30
ATOM     30  C   UNL     1     -31.606  -4.632  -2.127  0.00  0.00    +0.000 C 
ATOM     31  C   UNL     1     -30.291  -5.301  -2.460  0.00  0.00    +0.000 C 
ENDBRANCH  29  30
ENDBRANCH  27  29
ENDBRANCH  26  27
ENDBRANCH  19  26
ENDBRANCH  18  19
ENDBRANCH   1  18
TORSDOF 12
ENDMDL
MODEL 5
REMARK VINA RESULT:      -6.0      2.009      5.925
REMARK  Name = 
REMARK  12 active torsions:
REMARK  status: ('A' for Active; 'I' for Inactive)
REMARK    1  A    between atoms: C_2  and  O_3
REMARK    2  A    between atoms: O_3  and  C_4
REMARK    3  A    between atoms: C_4  and  C_6
REMARK    4  A    between atoms: C_6  and  C_7
REMARK    5  A    between atoms: C_7  and  C_8
REMARK    6  A    between atoms: C_7  and  O_14
REMARK    7  A    between atoms: C_8  and  C_9
REMARK    8  A    between atoms: C_9  and  O_11
REMARK    9  A    between atoms: O_11  and  C_12
REMARK   10  A    between atoms: O_14  and  C_15
REMARK   11  A    between atoms: C_21  and  C_22
REMARK   12  A    between atoms: C_23  and  C_24
REMARK                            x       y       z     vdW  Elec       q    Type
REMARK                         _______ _______ _______ _____ _____    ______ ____
ROOT
ATOM      1  C   UNL     1     -34.814  -5.808  -3.744  0.00  0.00    +0.000 A 
ATOM      2  C   UNL     1     -34.731  -6.983  -3.005  0.00  0.00    +0.000 A 
ATOM      3  C   UNL     1     -35.497  -8.094  -3.339  0.00  0.00    +0.000 A 
ATOM      4  O   UNL     1     -36.024  -8.922  -2.343  0.00  0.00    +0.000 OA
ATOM      5  C   UNL     1     -36.022  -8.077  -4.625  0.00  0.00    +0.000 A 
ATOM      6  C   UNL     1     -36.222  -6.872  -5.289  0.00  0.00    +0.000 A 
ATOM      7  C   UNL     1     -35.734  -5.677  -4.777  0.00  0.00    +0.000 A 
ENDROOT
BRANCH   7   8
ATOM      8  C   UNL     1     -36.551  -4.469  -4.945  0.00  0.00    +0.000 C 
ATOM      9  C   UNL     1     -37.227  -4.176  -6.024  0.00  0.00    +0.000 C 
BRANCH   9  10
ATOM     10  C   UNL     1     -36.998  -2.984  -6.852  0.00  0.00    +0.000 A 
ATOM     11  C   UNL     1     -37.465  -2.900  -8.148  0.00  0.00    +0.000 A 
ATOM     12  C   UNL     1     -37.966  -1.701  -8.641  0.00  0.00    +0.000 A 
ATOM     13  O   UNL     1     -38.453  -1.593  -9.939  0.00  0.00    +0.000 OA
ATOM     14  C   UNL     1     -37.782  -0.516  -7.941  0.00  0.00    +0.000 A 
ATOM     15  C   UNL     1     -37.233  -0.571  -6.680  0.00  0.00    +0.000 A 
ATOM     16  O   UNL     1     -37.345   0.589  -5.906  0.00  0.00    +0.000 OA
ATOM     17  C   UNL     1     -36.906  -1.789  -6.153  0.00  0.00    +0.000 A 
ENDBRANCH   9  10
ENDBRANCH   7   8
BRANCH   1  18
ATOM     18  O   UNL     1     -34.167  -4.639  -3.364  0.00  0.00    +0.000 OA
BRANCH  18  19
ATOM     19  C   UNL     1     -32.815  -4.360  -3.611  0.00  0.00    +0.000 C 
BRANCH  19  20
ATOM     20  C   UNL     1     -32.037  -4.003  -2.373  0.00  0.00    +0.000 C 
BRANCH  20  21
ATOM     21  C   UNL     1     -31.496  -5.183  -1.664  0.00  0.00    +0.000 C 
ATOM     22  O   UNL     1     -31.483  -5.118  -0.400  0.00  0.00    +0.000 OA
BRANCH  21  23
ATOM     23  O   UNL     1     -31.467  -6.455  -2.223  0.00  0.00    +0.000 OA
BRANCH  23  25
ATOM     24  C   UNL     1     -29.564  -6.106  -3.688  0.00  0.00    +0.000 C 
ATOM     25  C   UNL     1     -30.226  -6.967  -2.633  0.00  0.00    +0.000 C 
ENDBRANCH  23  25
ENDBRANCH  21  23
ENDBRANCH  20  21
ENDBRANCH  19  20
BRANCH  19  26
ATOM     26  C   UNL     1     -32.606  -3.254  -4.612  0.00  0.00    +0.000 C 
BRANCH  26  27
ATOM     27  C   UNL     1     -31.495  -3.520  -5.551  0.00  0.00    +0.000 C 
ATOM     28  O   UNL     1     -30.329  -3.078  -5.405  0.00  0.00    +0.000 OA
BRANCH  27  29
ATOM     29  O   UNL     1     -31.687  -4.489  -6.519  0.00  0.00    +0.000 OA
BRANCH  29  30
ATOM     30  C   UNL     1     -32.371  -4.225  -7.720  0.00  0.00    +0.000 C 
ATOM     31  C   UNL     1     -33.820  -4.657  -7.671  0.00  0.00    +0.000 C 
ENDBRANCH  29  30
ENDBRANCH  27  29
ENDBRANCH  26  27
ENDBRANCH  19  26
ENDBRANCH  18  19
ENDBRANCH   1  18
TORSDOF 12
ENDMDL
MODEL 6
REMARK VINA RESULT:      -6.0     18.035     20.736
REMARK  Name = 
REMARK  12 active torsions:
REMARK  status: ('A' for Active; 'I' for Inactive)
REMARK    1  A    between atoms: C_2  and  O_3
REMARK    2  A    between atoms: O_3  and  C_4
REMARK    3  A    between atoms: C_4  and  C_6
REMARK    4  A    between atoms: C_6  and  C_7
REMARK    5  A    between atoms: C_7  and  C_8
REMARK    6  A    between atoms: C_7  and  O_14
REMARK    7  A    between atoms: C_8  and  C_9
REMARK    8  A    between atoms: C_9  and  O_11
REMARK    9  A    between atoms: O_11  and  C_12
REMARK   10  A    between atoms: O_14  and  C_15
REMARK   11  A    between atoms: C_21  and  C_22
REMARK   12  A    between atoms: C_23  and  C_24
REMARK                            x       y       z     vdW  Elec       q    Type
REMARK                         _______ _______ _______ _____ _____    ______ ____
ROOT
ATOM      1  C   UNL     1     -18.905  -6.378   8.171  0.00  0.00    +0.000 A 
ATOM      2  C   UNL     1     -19.196  -6.766   9.474  0.00  0.00    +0.000 A 
ATOM      3  C   UNL     1     -19.749  -5.870  10.381  0.00  0.00    +0.000 A 
ATOM      4  O   UNL     1     -19.382  -5.904  11.730  0.00  0.00    +0.000 OA
ATOM      5  C   UNL     1     -20.325  -4.742   9.811  0.00  0.00    +0.000 A 
ATOM      6  C   UNL     1     -19.915  -4.296   8.560  0.00  0.00    +0.000 A 
ATOM      7  C   UNL     1     -19.070  -5.059   7.765  0.00  0.00    +0.000 A 
ENDROOT
BRANCH   7   8
ATOM      8  C   UNL     1     -18.060  -4.359   6.962  0.00  0.00    +0.000 C 
ATOM      9  C   UNL     1     -17.414  -3.291   7.349  0.00  0.00    +0.000 C 
BRANCH   9  10
ATOM     10  C   UNL     1     -17.478  -1.988   6.673  0.00  0.00    +0.000 A 
ATOM     11  C   UNL     1     -18.342  -0.995   7.090  0.00  0.00    +0.000 A 
ATOM     12  C   UNL     1     -17.946   0.336   7.072  0.00  0.00    +0.000 A 
ATOM     13  O   UNL     1     -18.793   1.354   7.497  0.00  0.00    +0.000 OA
ATOM     14  C   UNL     1     -16.787   0.722   6.411  0.00  0.00    +0.000 A 
ATOM     15  C   UNL     1     -15.957  -0.253   5.909  0.00  0.00    +0.000 A 
ATOM     16  O   UNL     1     -14.676   0.161   5.528  0.00  0.00    +0.000 OA
ATOM     17  C   UNL     1     -16.291  -1.566   6.093  0.00  0.00    +0.000 A 
ENDBRANCH   9  10
ENDBRANCH   7   8
BRANCH   1  18
ATOM     18  O   UNL     1     -18.232  -7.202   7.278  0.00  0.00    +0.000 OA
BRANCH  18  19
ATOM     19  C   UNL     1     -18.832  -7.859   6.194  0.00  0.00    +0.000 C 
BRANCH  19  20
ATOM     20  C   UNL     1     -20.160  -8.483   6.527  0.00  0.00    +0.000 C 
BRANCH  20  21
ATOM     21  C   UNL     1     -20.037  -9.787   7.214  0.00  0.00    +0.000 C 
ATOM     22  O   UNL     1     -20.048 -10.813   6.473  0.00  0.00    +0.000 OA
BRANCH  21  23
ATOM     23  O   UNL     1     -19.454  -9.929   8.467  0.00  0.00    +0.000 OA
BRANCH  23  25
ATOM     24  C   UNL     1     -17.116 -10.071   9.105  0.00  0.00    +0.000 C 
ATOM     25  C   UNL     1     -18.347 -10.785   8.586  0.00  0.00    +0.000 C 
ENDBRANCH  23  25
ENDBRANCH  21  23
ENDBRANCH  20  21
ENDBRANCH  19  20
BRANCH  19  26
ATOM     26  C   UNL     1     -17.965  -8.935   5.593  0.00  0.00    +0.000 C 
BRANCH  26  27
ATOM     27  C   UNL     1     -17.837  -8.827   4.124  0.00  0.00    +0.000 C 
ATOM     28  O   UNL     1     -18.783  -8.531   3.354  0.00  0.00    +0.000 OA
BRANCH  27  29
ATOM     29  O   UNL     1     -16.562  -8.832   3.586  0.00  0.00    +0.000 OA
BRANCH  29  30
ATOM     30  C   UNL     1     -15.543  -7.988   4.064  0.00  0.00    +0.000 C 
ATOM     31  C   UNL     1     -15.618  -6.595   3.479  0.00  0.00    +0.000 C 
ENDBRANCH  29  30
ENDBRANCH  27  29
ENDBRANCH  26  27
ENDBRANCH  19  26
ENDBRANCH  18  19
ENDBRANCH   1  18
TORSDOF 12
ENDMDL
MODEL 7
REMARK VINA RESULT:      -5.9     15.178     19.652
REMARK  Name = 
REMARK  12 active torsions:
REMARK  status: ('A' for Active; 'I' for Inactive)
REMARK    1  A    between atoms: C_2  and  O_3
REMARK    2  A    between atoms: O_3  and  C_4
REMARK    3  A    between atoms: C_4  and  C_6
REMARK    4  A    between atoms: C_6  and  C_7
REMARK    5  A    between atoms: C_7  and  C_8
REMARK    6  A    between atoms: C_7  and  O_14
REMARK    7  A    between atoms: C_8  and  C_9
REMARK    8  A    between atoms: C_9  and  O_11
REMARK    9  A    between atoms: O_11  and  C_12
REMARK   10  A    between atoms: O_14  and  C_15
REMARK   11  A    between atoms: C_21  and  C_22
REMARK   12  A    between atoms: C_23  and  C_24
REMARK                            x       y       z     vdW  Elec       q    Type
REMARK                         _______ _______ _______ _____ _____    ______ ____
ROOT
ATOM      1  C   UNL     1     -18.157  -8.261   4.916  0.00  0.00    +0.000 A 
ATOM      2  C   UNL     1     -18.110  -9.360   4.066  0.00  0.00    +0.000 A 
ATOM      3  C   UNL     1     -17.015  -9.577   3.237  0.00  0.00    +0.000 A 
ATOM      4  O   UNL     1     -17.186 -10.106   1.954  0.00  0.00    +0.000 OA
ATOM      5  C   UNL     1     -15.867  -8.879   3.591  0.00  0.00    +0.000 A 
ATOM      6  C   UNL     1     -15.956  -7.704   4.327  0.00  0.00    +0.000 A 
ATOM      7  C   UNL     1     -17.157  -7.297   4.894  0.00  0.00    +0.000 A 
ENDROOT
BRANCH   7   8
ATOM      8  C   UNL     1     -17.458  -5.860   4.916  0.00  0.00    +0.000 C 
ATOM      9  C   UNL     1     -16.697  -4.952   5.468  0.00  0.00    +0.000 C 
BRANCH   9  10
ATOM     10  C   UNL     1     -17.109  -4.087   6.581  0.00  0.00    +0.000 A 
ATOM     11  C   UNL     1     -16.986  -2.714   6.518  0.00  0.00    +0.000 A 
ATOM     12  C   UNL     1     -17.964  -1.891   7.063  0.00  0.00    +0.000 A 
ATOM     13  O   UNL     1     -17.868  -0.506   7.002  0.00  0.00    +0.000 OA
ATOM     14  C   UNL     1     -18.947  -2.415   7.892  0.00  0.00    +0.000 A 
ATOM     15  C   UNL     1     -19.030  -3.780   8.039  0.00  0.00    +0.000 A 
ATOM     16  O   UNL     1     -20.201  -4.269   8.628  0.00  0.00    +0.000 OA
ATOM     17  C   UNL     1     -18.155  -4.575   7.352  0.00  0.00    +0.000 A 
ENDBRANCH   9  10
ENDBRANCH   7   8
BRANCH   1  18
ATOM     18  O   UNL     1     -19.286  -7.938   5.658  0.00  0.00    +0.000 OA
BRANCH  18  19
ATOM     19  C   UNL     1     -19.672  -8.582   6.843  0.00  0.00    +0.000 C 
BRANCH  19  20
ATOM     20  C   UNL     1     -20.513  -9.809   6.616  0.00  0.00    +0.000 C 
BRANCH  20  21
ATOM     21  C   UNL     1     -21.796  -9.519   5.940  0.00  0.00    +0.000 C 
ATOM     22  O   UNL     1     -21.776  -9.525   4.674  0.00  0.00    +0.000 OA
BRANCH  21  23
ATOM     23  O   UNL     1     -23.032  -9.718   6.544  0.00  0.00    +0.000 OA
BRANCH  23  25
ATOM     24  C   UNL     1     -25.412  -9.243   6.507  0.00  0.00    +0.000 C 
ATOM     25  C   UNL     1     -23.999  -8.708   6.416  0.00  0.00    +0.000 C 
ENDBRANCH  23  25
ENDBRANCH  21  23
ENDBRANCH  20  21
ENDBRANCH  19  20
BRANCH  19  26
ATOM     26  C   UNL     1     -20.423  -7.687   7.792  0.00  0.00    +0.000 C 
BRANCH  26  27
ATOM     27  C   UNL     1     -19.952  -7.792   9.190  0.00  0.00    +0.000 C 
ATOM     28  O   UNL     1     -18.902  -7.255   9.622  0.00  0.00    +0.000 OA
BRANCH  27  29
ATOM     29  O   UNL     1     -20.824  -8.318  10.126  0.00  0.00    +0.000 OA
BRANCH  29  30
ATOM     30  C   UNL     1     -22.167  -8.608   9.822  0.00  0.00    +0.000 C 
ATOM     31  C   UNL     1     -22.516 -10.061  10.054  0.00  0.00    +0.000 C 
ENDBRANCH  29  30
ENDBRANCH  27  29
ENDBRANCH  26  27
ENDBRANCH  19  26
ENDBRANCH  18  19
ENDBRANCH   1  18
TORSDOF 12
ENDMDL
MODEL 8
REMARK VINA RESULT:      -5.9      2.057      6.265
REMARK  Name = 
REMARK  12 active torsions:
REMARK  status: ('A' for Active; 'I' for Inactive)
REMARK    1  A    between atoms: C_2  and  O_3
REMARK    2  A    between atoms: O_3  and  C_4
REMARK    3  A    between atoms: C_4  and  C_6
REMARK    4  A    between atoms: C_6  and  C_7
REMARK    5  A    between atoms: C_7  and  C_8
REMARK    6  A    between atoms: C_7  and  O_14
REMARK    7  A    between atoms: C_8  and  C_9
REMARK    8  A    between atoms: C_9  and  O_11
REMARK    9  A    between atoms: O_11  and  C_12
REMARK   10  A    between atoms: O_14  and  C_15
REMARK   11  A    between atoms: C_21  and  C_22
REMARK   12  A    between atoms: C_23  and  C_24
REMARK                            x       y       z     vdW  Elec       q    Type
REMARK                         _______ _______ _______ _____ _____    ______ ____
ROOT
ATOM      1  C   UNL     1     -35.194  -6.249  -7.174  0.00  0.00    +0.000 A 
ATOM      2  C   UNL     1     -35.734  -6.468  -8.436  0.00  0.00    +0.000 A 
ATOM      3  C   UNL     1     -36.628  -7.508  -8.661  0.00  0.00    +0.000 A 
ATOM      4  O   UNL     1     -36.607  -8.219  -9.866  0.00  0.00    +0.000 OA
ATOM      5  C   UNL     1     -37.214  -8.033  -7.516  0.00  0.00    +0.000 A 
ATOM      6  C   UNL     1     -36.582  -7.918  -6.284  0.00  0.00    +0.000 A 
ATOM      7  C   UNL     1     -35.457  -7.119  -6.124  0.00  0.00    +0.000 A 
ENDROOT
BRANCH   7   8
ATOM      8  C   UNL     1     -34.402  -7.588  -5.217  0.00  0.00    +0.000 C 
ATOM      9  C   UNL     1     -34.180  -7.102  -4.024  0.00  0.00    +0.000 C 
BRANCH   9  10
ATOM     10  C   UNL     1     -32.930  -6.452  -3.609  0.00  0.00    +0.000 A 
ATOM     11  C   UNL     1     -32.878  -5.611  -2.516  0.00  0.00    +0.000 A 
ATOM     12  C   UNL     1     -31.777  -5.622  -1.669  0.00  0.00    +0.000 A 
ATOM     13  O   UNL     1     -31.705  -4.792  -0.556  0.00  0.00    +0.000 OA
ATOM     14  C   UNL     1     -30.611  -6.284  -2.032  0.00  0.00    +0.000 A 
ATOM     15  C   UNL     1     -30.617  -7.058  -3.169  0.00  0.00    +0.000 A 
ATOM     16  O   UNL     1     -29.537  -7.933  -3.328  0.00  0.00    +0.000 OA
ATOM     17  C   UNL     1     -31.773  -7.163  -3.892  0.00  0.00    +0.000 A 
ENDBRANCH   9  10
ENDBRANCH   7   8
BRANCH   1  18
ATOM     18  O   UNL     1     -34.201  -5.307  -6.940  0.00  0.00    +0.000 OA
BRANCH  18  19
ATOM     19  C   UNL     1     -34.417  -4.048  -6.360  0.00  0.00    +0.000 C 
BRANCH  19  20
ATOM     20  C   UNL     1     -35.739  -3.433  -6.729  0.00  0.00    +0.000 C 
BRANCH  20  21
ATOM     21  C   UNL     1     -36.296  -2.566  -5.668  0.00  0.00    +0.000 C 
ATOM     22  O   UNL     1     -36.125  -1.320  -5.816  0.00  0.00    +0.000 OA
BRANCH  21  23
ATOM     23  O   UNL     1     -37.343  -2.957  -4.843  0.00  0.00    +0.000 OA
BRANCH  23  25
ATOM     24  C   UNL     1     -37.313  -5.091  -3.686  0.00  0.00    +0.000 C 
ATOM     25  C   UNL     1     -37.759  -4.297  -4.896  0.00  0.00    +0.000 C 
ENDBRANCH  23  25
ENDBRANCH  21  23
ENDBRANCH  20  21
ENDBRANCH  19  20
BRANCH  19  26
ATOM     26  C   UNL     1     -33.343  -3.045  -6.690  0.00  0.00    +0.000 C 
BRANCH  26  27
ATOM     27  C   UNL     1     -32.282  -2.968  -5.664  0.00  0.00    +0.000 C 
ATOM     28  O   UNL     1     -32.499  -2.910  -4.428  0.00  0.00    +0.000 OA
BRANCH  27  29
ATOM     29  O   UNL     1     -30.978  -3.198  -6.065  0.00  0.00    +0.000 OA
BRANCH  29  30
ATOM     30  C   UNL     1     -30.312  -4.408  -5.796  0.00  0.00    +0.000 C 
ATOM     31  C   UNL     1     -29.104  -4.221  -4.904  0.00  0.00    +0.000 C 
ENDBRANCH  29  30
ENDBRANCH  27  29
ENDBRANCH  26  27
ENDBRANCH  19  26
ENDBRANCH  18  19
ENDBRANCH   1  18
TORSDOF 12
ENDMDL
MODEL 9
REMARK VINA RESULT:      -5.7      3.783      6.621
REMARK  Name = 
REMARK  12 active torsions:
REMARK  status: ('A' for Active; 'I' for Inactive)
REMARK    1  A    between atoms: C_2  and  O_3
REMARK    2  A    between atoms: O_3  and  C_4
REMARK    3  A    between atoms: C_4  and  C_6
REMARK    4  A    between atoms: C_6  and  C_7
REMARK    5  A    between atoms: C_7  and  C_8
REMARK    6  A    between atoms: C_7  and  O_14
REMARK    7  A    between atoms: C_8  and  C_9
REMARK    8  A    between atoms: C_9  and  O_11
REMARK    9  A    between atoms: O_11  and  C_12
REMARK   10  A    between atoms: O_14  and  C_15
REMARK   11  A    between atoms: C_21  and  C_22
REMARK   12  A    between atoms: C_23  and  C_24
REMARK                            x       y       z     vdW  Elec       q    Type
REMARK                         _______ _______ _______ _____ _____    ______ ____
ROOT
ATOM      1  C   UNL     1     -36.411  -5.175  -7.868  0.00  0.00    +0.000 A 
ATOM      2  C   UNL     1     -36.722  -3.821  -7.801  0.00  0.00    +0.000 A 
ATOM      3  C   UNL     1     -37.893  -3.327  -8.365  0.00  0.00    +0.000 A 
ATOM      4  O   UNL     1     -37.913  -2.071  -8.980  0.00  0.00    +0.000 OA
ATOM      5  C   UNL     1     -38.862  -4.286  -8.634  0.00  0.00    +0.000 A 
ATOM      6  C   UNL     1     -38.504  -5.613  -8.833  0.00  0.00    +0.000 A 
ATOM      7  C   UNL     1     -37.212  -6.057  -8.583  0.00  0.00    +0.000 A 
ENDROOT
BRANCH   7   8
ATOM      8  C   UNL     1     -36.645  -7.073  -9.478  0.00  0.00    +0.000 C 
ATOM      9  C   UNL     1     -36.229  -6.840 -10.695  0.00  0.00    +0.000 C 
BRANCH   9  10
ATOM     10  C   UNL     1     -36.793  -7.460 -11.901  0.00  0.00    +0.000 A 
ATOM     11  C   UNL     1     -36.164  -7.369 -13.126  0.00  0.00    +0.000 A 
ATOM     12  C   UNL     1     -36.160  -8.449 -13.999  0.00  0.00    +0.000 A 
ATOM     13  O   UNL     1     -35.525  -8.386 -15.235  0.00  0.00    +0.000 OA
ATOM     14  C   UNL     1     -36.986  -9.543 -13.776  0.00  0.00    +0.000 A 
ATOM     15  C   UNL     1     -37.692  -9.610 -12.597  0.00  0.00    +0.000 A 
ATOM     16  O   UNL     1     -38.262 -10.848 -12.286  0.00  0.00    +0.000 OA
ATOM     17  C   UNL     1     -37.542  -8.607 -11.679  0.00  0.00    +0.000 A 
ENDBRANCH   9  10
ENDBRANCH   7   8
BRANCH   1  18
ATOM     18  O   UNL     1     -35.193  -5.684  -7.435  0.00  0.00    +0.000 OA
BRANCH  18  19
ATOM     19  C   UNL     1     -34.324  -5.027  -6.552  0.00  0.00    +0.000 C 
BRANCH  19  20
ATOM     20  C   UNL     1     -33.061  -4.535  -7.204  0.00  0.00    +0.000 C 
BRANCH  20  21
ATOM     21  C   UNL     1     -32.424  -3.418  -6.473  0.00  0.00    +0.000 C 
ATOM     22  O   UNL     1     -33.176  -2.445  -6.172  0.00  0.00    +0.000 OA
BRANCH  21  23
ATOM     23  O   UNL     1     -31.269  -3.570  -5.716  0.00  0.00    +0.000 OA
BRANCH  23  25
ATOM     24  C   UNL     1     -29.220  -4.179  -6.867  0.00  0.00    +0.000 C 
ATOM     25  C   UNL     1     -30.404  -4.629  -6.038  0.00  0.00    +0.000 C 
ENDBRANCH  23  25
ENDBRANCH  21  23
ENDBRANCH  20  21
ENDBRANCH  19  20
BRANCH  19  26
ATOM     26  C   UNL     1     -33.924  -5.870  -5.369  0.00  0.00    +0.000 C 
BRANCH  26  27
ATOM     27  C   UNL     1     -34.485  -5.384  -4.091  0.00  0.00    +0.000 C 
ATOM     28  O   UNL     1     -35.603  -5.728  -3.635  0.00  0.00    +0.000 OA
BRANCH  27  29
ATOM     29  O   UNL     1     -33.643  -4.690  -3.241  0.00  0.00    +0.000 OA
BRANCH  29  30
ATOM     30  C   UNL     1     -32.460  -5.254  -2.729  0.00  0.00    +0.000 C 
ATOM     31  C   UNL     1     -32.723  -6.445  -1.834  0.00  0.00    +0.000 C 
ENDBRANCH  29  30
ENDBRANCH  27  29
ENDBRANCH  26  27
ENDBRANCH  19  26
ENDBRANCH  18  19
ENDBRANCH   1  18
TORSDOF 12
ENDMDL
MODEL 10
REMARK VINA RESULT:      -5.7     12.498     16.468
REMARK  Name = 
REMARK  12 active torsions:
REMARK  status: ('A' for Active; 'I' for Inactive)
REMARK    1  A    between atoms: C_2  and  O_3
REMARK    2  A    between atoms: O_3  and  C_4
REMARK    3  A    between atoms: C_4  and  C_6
REMARK    4  A    between atoms: C_6  and  C_7
REMARK    5  A    between atoms: C_7  and  C_8
REMARK    6  A    between atoms: C_7  and  O_14
REMARK    7  A    between atoms: C_8  and  C_9
REMARK    8  A    between atoms: C_9  and  O_11
REMARK    9  A    between atoms: O_11  and  C_12
REMARK   10  A    between atoms: O_14  and  C_15
REMARK   11  A    between atoms: C_21  and  C_22
REMARK   12  A    between atoms: C_23  and  C_24
REMARK                            x       y       z     vdW  Elec       q    Type
REMARK                         _______ _______ _______ _____ _____    ______ ____
ROOT
ATOM      1  C   UNL     1     -23.909   6.459  -0.973  0.00  0.00    +0.000 A 
ATOM      2  C   UNL     1     -22.790   6.476  -0.148  0.00  0.00    +0.000 A 
ATOM      3  C   UNL     1     -21.840   7.486  -0.252  0.00  0.00    +0.000 A 
ATOM      4  O   UNL     1     -20.481   7.208  -0.073  0.00  0.00    +0.000 OA
ATOM      5  C   UNL     1     -22.268   8.625  -0.923  0.00  0.00    +0.000 A 
ATOM      6  C   UNL     1     -23.304   8.551  -1.847  0.00  0.00    +0.000 A 
ATOM      7  C   UNL     1     -24.064   7.396  -1.987  0.00  0.00    +0.000 A 
ENDROOT
BRANCH   7   8
ATOM      8  C   UNL     1     -24.505   7.020  -3.335  0.00  0.00    +0.000 C 
ATOM      9  C   UNL     1     -24.038   7.539  -4.440  0.00  0.00    +0.000 C 
BRANCH   9  10
ATOM     10  C   UNL     1     -24.845   8.284  -5.416  0.00  0.00    +0.000 A 
ATOM     11  C   UNL     1     -24.460   8.401  -6.736  0.00  0.00    +0.000 A 
ATOM     12  C   UNL     1     -25.406   8.356  -7.753  0.00  0.00    +0.000 A 
ATOM     13  O   UNL     1     -25.043   8.462  -9.091  0.00  0.00    +0.000 OA
ATOM     14  C   UNL     1     -26.761   8.443  -7.463  0.00  0.00    +0.000 A 
ATOM     15  C   UNL     1     -27.159   8.418  -6.146  0.00  0.00    +0.000 A 
ATOM     16  O   UNL     1     -28.522   8.204  -5.916  0.00  0.00    +0.000 OA
ATOM     17  C   UNL     1     -26.210   8.290  -5.171  0.00  0.00    +0.000 A 
ENDBRANCH   9  10
ENDBRANCH   7   8
BRANCH   1  18
ATOM     18  O   UNL     1     -24.808   5.401  -0.990  0.00  0.00    +0.000 OA
BRANCH  18  19
ATOM     19  C   UNL     1     -26.037   5.387  -0.315  0.00  0.00    +0.000 C 
BRANCH  19  20
ATOM     20  C   UNL     1     -25.947   4.855   1.089  0.00  0.00    +0.000 C 
BRANCH  20  21
ATOM     21  C   UNL     1     -26.207   5.883   2.121  0.00  0.00    +0.000 C 
ATOM     22  O   UNL     1     -27.389   5.939   2.570  0.00  0.00    +0.000 OA
BRANCH  21  23
ATOM     23  O   UNL     1     -25.208   6.416   2.926  0.00  0.00    +0.000 OA
BRANCH  23  25
ATOM     24  C   UNL     1     -25.614   8.411   1.605  0.00  0.00    +0.000 C 
ATOM     25  C   UNL     1     -24.902   7.779   2.782  0.00  0.00    +0.000 C 
ENDBRANCH  23  25
ENDBRANCH  21  23
ENDBRANCH  20  21
ENDBRANCH  19  20
BRANCH  19  26
ATOM     26  C   UNL     1     -27.104   4.600  -1.030  0.00  0.00    +0.000 C 
BRANCH  26  27
ATOM     27  C   UNL     1     -26.869   3.141  -1.002  0.00  0.00    +0.000 C 
ATOM     28  O   UNL     1     -27.612   2.319  -0.411  0.00  0.00    +0.000 OA
BRANCH  27  29
ATOM     29  O   UNL     1     -25.910   2.625  -1.856  0.00  0.00    +0.000 OA
BRANCH  29  30
ATOM     30  C   UNL     1     -25.034   1.596  -1.466  0.00  0.00    +0.000 C 
ATOM     31  C   UNL     1     -24.347   1.883  -0.149  0.00  0.00    +0.000 C 
ENDBRANCH  29  30
ENDBRANCH  27  29
ENDBRANCH  26  27
ENDBRANCH  19  26
ENDBRANCH  18  19
ENDBRANCH   1  18
TORSDOF 12
ENDMDL
