MODEL 1
REMARK VINA RESULT:      -8.2      0.000      0.000
REMARK  Name = 
REMARK  6 active torsions:
REMARK  status: ('A' for Active; 'I' for Inactive)
REMARK    1  A    between atoms: C_4  and  O_5
REMARK    2  A    between atoms: O_5  and  C_6
REMARK    3  A    between atoms: C_12  and  C_13
REMARK    4  A    between atoms: C_14  and  C_15
REMARK    5  A    between atoms: N_25  and  C_26
REMARK    6  A    between atoms: C_26  and  C_27
REMARK                            x       y       z     vdW  Elec       q    Type
REMARK                         _______ _______ _______ _____ _____    ______ ____
ROOT
ATOM      1  C   UNL     1     -35.739  -5.108  -5.890  0.00  0.00    +0.000 A 
ATOM      2  C   UNL     1     -35.038  -4.100  -6.550  0.00  0.00    +0.000 A 
ATOM      3  C   UNL     1     -34.600  -2.988  -5.829  0.00  0.00    +0.000 A 
ATOM      4  O   UNL     1     -33.322  -2.477  -6.101  0.00  0.00    +0.000 OA
ATOM      5  C   UNL     1     -35.172  -2.862  -4.563  0.00  0.00    +0.000 A 
ATOM      6  C   UNL     1     -35.681  -3.974  -3.889  0.00  0.00    +0.000 A 
ATOM      7  C   UNL     1     -35.699  -5.228  -4.502  0.00  0.00    +0.000 A 
ENDROOT
BRANCH   7   8
ATOM      8  C   UNL     1     -35.009  -6.409  -3.975  0.00  0.00    +0.000 C 
ATOM      9  C   UNL     1     -34.306  -6.573  -2.930  0.00  0.00    +0.000 C 
BRANCH   9  10
ATOM     10  C   UNL     1     -32.930  -6.199  -2.587  0.00  0.00    +0.000 A 
ATOM     11  C   UNL     1     -31.968  -7.121  -2.197  0.00  0.00    +0.000 A 
ATOM     12  C   UNL     1     -30.637  -6.983  -2.581  0.00  0.00    +0.000 A 
ATOM     13  O   UNL     1     -29.682  -7.941  -2.275  0.00  0.00    +0.000 OA
ATOM     14  C   UNL     1     -30.250  -5.940  -3.409  0.00  0.00    +0.000 A 
ATOM     15  C   UNL     1     -31.196  -5.020  -3.822  0.00  0.00    +0.000 A 
ATOM     16  O   UNL     1     -30.885  -4.107  -4.800  0.00  0.00    +0.000 OA
ATOM     17  C   UNL     1     -32.361  -5.012  -3.062  0.00  0.00    +0.000 A 
ENDBRANCH   9  10
ENDBRANCH   7   8
BRANCH   1  18
ATOM     18  O   UNL     1     -36.300  -6.204  -6.544  0.00  0.00    +0.000 OA
BRANCH  18  22
ATOM     19  O   UNL     1     -35.338  -9.168  -9.581  0.00  0.00    +0.000 OA
ATOM     20  C   UNL     1     -35.701  -8.336  -9.192  0.00  0.00    +0.000 C 
ATOM     21  C   UNL     1     -35.485  -7.977  -7.759  0.00  0.00    +0.000 C 
ATOM     22  C   UNL     1     -35.589  -6.331  -7.901  0.00  0.00    +0.000 C 
ATOM     23  C   UNL     1     -36.986  -6.417  -8.733  0.00  0.00    +0.000 C 
ATOM     24  O   UNL     1     -37.373  -5.353  -9.309  0.00  0.00    +0.000 OA
ATOM     25  N   UNL     1     -36.746  -7.518  -9.636  0.00  0.00    +0.000 N 
BRANCH  25  26
ATOM     26  C   UNL     1     -37.865  -8.029 -10.426  0.00  0.00    +0.000 C 
BRANCH  26  27
ATOM     27  C   UNL     1     -37.623  -7.951 -11.872  0.00  0.00    +0.000 A 
ATOM     28  C   UNL     1     -36.788  -7.019 -12.471  0.00  0.00    +0.000 A 
ATOM     29  C   UNL     1     -35.873  -7.433 -13.428  0.00  0.00    +0.000 A 
ATOM     30  C   UNL     1     -35.906  -8.700 -13.977  0.00  0.00    +0.000 A 
ATOM     31  C   UNL     1     -36.944  -9.530 -13.593  0.00  0.00    +0.000 A 
ATOM     32  C   UNL     1     -37.770  -9.148 -12.562  0.00  0.00    +0.000 A 
ENDBRANCH  26  27
ENDBRANCH  25  26
ENDBRANCH  18  22
ENDBRANCH   1  18
TORSDOF 6
ENDMDL
MODEL 2
REMARK VINA RESULT:      -8.1     20.453     22.249
REMARK  Name = 
REMARK  6 active torsions:
REMARK  status: ('A' for Active; 'I' for Inactive)
REMARK    1  A    between atoms: C_4  and  O_5
REMARK    2  A    between atoms: O_5  and  C_6
REMARK    3  A    between atoms: C_12  and  C_13
REMARK    4  A    between atoms: C_14  and  C_15
REMARK    5  A    between atoms: N_25  and  C_26
REMARK    6  A    between atoms: C_26  and  C_27
REMARK                            x       y       z     vdW  Elec       q    Type
REMARK                         _______ _______ _______ _____ _____    ______ ____
ROOT
ATOM      1  C   UNL     1     -18.926  -5.882   8.109  0.00  0.00    +0.000 A 
ATOM      2  C   UNL     1     -20.162  -6.088   8.721  0.00  0.00    +0.000 A 
ATOM      3  C   UNL     1     -20.622  -5.166   9.661  0.00  0.00    +0.000 A 
ATOM      4  O   UNL     1     -21.979  -4.811   9.640  0.00  0.00    +0.000 OA
ATOM      5  C   UNL     1     -19.650  -4.273  10.112  0.00  0.00    +0.000 A 
ATOM      6  C   UNL     1     -18.528  -3.977   9.336  0.00  0.00    +0.000 A 
ATOM      7  C   UNL     1     -18.313  -4.629   8.122  0.00  0.00    +0.000 A 
ENDROOT
BRANCH   7   8
ATOM      8  C   UNL     1     -18.215  -3.946   6.828  0.00  0.00    +0.000 C 
ATOM      9  C   UNL     1     -17.309  -3.200   6.342  0.00  0.00    +0.000 C 
BRANCH   9  10
ATOM     10  C   UNL     1     -16.939  -1.800   6.577  0.00  0.00    +0.000 A 
ATOM     11  C   UNL     1     -15.833  -1.200   5.992  0.00  0.00    +0.000 A 
ATOM     12  C   UNL     1     -15.865   0.129   5.579  0.00  0.00    +0.000 A 
ATOM     13  O   UNL     1     -14.799   0.717   4.914  0.00  0.00    +0.000 OA
ATOM     14  C   UNL     1     -17.028   0.873   5.698  0.00  0.00    +0.000 A 
ATOM     15  C   UNL     1     -18.148   0.289   6.263  0.00  0.00    +0.000 A 
ATOM     16  O   UNL     1     -19.361   0.929   6.203  0.00  0.00    +0.000 OA
ATOM     17  C   UNL     1     -17.886  -0.861   7.001  0.00  0.00    +0.000 A 
ENDBRANCH   9  10
ENDBRANCH   7   8
BRANCH   1  18
ATOM     18  O   UNL     1     -18.342  -6.797   7.234  0.00  0.00    +0.000 OA
BRANCH  18  22
ATOM     19  O   UNL     1     -19.646  -9.826   4.396  0.00  0.00    +0.000 OA
ATOM     20  C   UNL     1     -19.285  -9.447   5.234  0.00  0.00    +0.000 C 
ATOM     21  C   UNL     1     -19.232  -7.974   5.472  0.00  0.00    +0.000 C 
ATOM     22  C   UNL     1     -19.303  -7.992   7.126  0.00  0.00    +0.000 C 
ATOM     23  C   UNL     1     -18.105  -9.089   7.239  0.00  0.00    +0.000 C 
ATOM     24  O   UNL     1     -17.938  -9.636   8.373  0.00  0.00    +0.000 OA
ATOM     25  N   UNL     1     -18.428 -10.017   6.182  0.00  0.00    +0.000 N 
BRANCH  25  26
ATOM     26  C   UNL     1     -17.455 -11.053   5.842  0.00  0.00    +0.000 C 
BRANCH  26  27
ATOM     27  C   UNL     1     -16.481 -10.610   4.836  0.00  0.00    +0.000 A 
ATOM     28  C   UNL     1     -16.558 -10.929   3.488  0.00  0.00    +0.000 A 
ATOM     29  C   UNL     1     -16.377  -9.935   2.537  0.00  0.00    +0.000 A 
ATOM     30  C   UNL     1     -15.902  -8.681   2.866  0.00  0.00    +0.000 A 
ATOM     31  C   UNL     1     -15.533  -8.468   4.181  0.00  0.00    +0.000 A 
ATOM     32  C   UNL     1     -15.827  -9.420   5.129  0.00  0.00    +0.000 A 
ENDBRANCH  26  27
ENDBRANCH  25  26
ENDBRANCH  18  22
ENDBRANCH   1  18
TORSDOF 6
ENDMDL
MODEL 3
REMARK VINA RESULT:      -8.1      2.024      3.233
REMARK  Name = 
REMARK  6 active torsions:
REMARK  status: ('A' for Active; 'I' for Inactive)
REMARK    1  A    between atoms: C_4  and  O_5
REMARK    2  A    between atoms: O_5  and  C_6
REMARK    3  A    between atoms: C_12  and  C_13
REMARK    4  A    between atoms: C_14  and  C_15
REMARK    5  A    between atoms: N_25  and  C_26
REMARK    6  A    between atoms: C_26  and  C_27
REMARK                            x       y       z     vdW  Elec       q    Type
REMARK                         _______ _______ _______ _____ _____    ______ ____
ROOT
ATOM      1  C   UNL     1     -35.977  -3.355  -6.555  0.00  0.00    +0.000 A 
ATOM      2  C   UNL     1     -36.653  -2.348  -5.868  0.00  0.00    +0.000 A 
ATOM      3  C   UNL     1     -36.345  -2.108  -4.528  0.00  0.00    +0.000 A 
ATOM      4  O   UNL     1     -36.270  -0.778  -4.089  0.00  0.00    +0.000 OA
ATOM      5  C   UNL     1     -35.585  -3.111  -3.926  0.00  0.00    +0.000 A 
ATOM      6  C   UNL     1     -34.777  -3.958  -4.687  0.00  0.00    +0.000 A 
ATOM      7  C   UNL     1     -34.772  -3.872  -6.079  0.00  0.00    +0.000 A 
ENDROOT
BRANCH   7   8
ATOM      8  C   UNL     1     -33.580  -3.572  -6.879  0.00  0.00    +0.000 C 
ATOM      9  C   UNL     1     -32.603  -4.302  -7.233  0.00  0.00    +0.000 C 
BRANCH   9  10
ATOM     10  C   UNL     1     -31.422  -4.799  -6.521  0.00  0.00    +0.000 A 
ATOM     11  C   UNL     1     -30.233  -4.087  -6.435  0.00  0.00    +0.000 A 
ATOM     12  C   UNL     1     -29.458  -4.111  -5.279  0.00  0.00    +0.000 A 
ATOM     13  O   UNL     1     -28.315  -3.337  -5.146  0.00  0.00    +0.000 OA
ATOM     14  C   UNL     1     -29.886  -4.810  -4.161  0.00  0.00    +0.000 A 
ATOM     15  C   UNL     1     -31.076  -5.512  -4.220  0.00  0.00    +0.000 A 
ATOM     16  O   UNL     1     -31.622  -6.037  -3.073  0.00  0.00    +0.000 OA
ATOM     17  C   UNL     1     -31.536  -5.759  -5.509  0.00  0.00    +0.000 A 
ENDBRANCH   9  10
ENDBRANCH   7   8
BRANCH   1  18
ATOM     18  O   UNL     1     -36.285  -3.732  -7.861  0.00  0.00    +0.000 OA
BRANCH  18  22
ATOM     19  O   UNL     1     -39.488  -4.985 -10.528  0.00  0.00    +0.000 OA
ATOM     20  C   UNL     1     -38.800  -5.054  -9.822  0.00  0.00    +0.000 C 
ATOM     21  C   UNL     1     -38.018  -3.867  -9.367  0.00  0.00    +0.000 C 
ATOM     22  C   UNL     1     -37.683  -4.373  -7.825  0.00  0.00    +0.000 C 
ATOM     23  C   UNL     1     -37.139  -5.819  -8.340  0.00  0.00    +0.000 C 
ATOM     24  O   UNL     1     -36.972  -6.713  -7.454  0.00  0.00    +0.000 OA
ATOM     25  N   UNL     1     -38.101  -6.173  -9.356  0.00  0.00    +0.000 N 
BRANCH  25  26
ATOM     26  C   UNL     1     -37.832  -7.339 -10.195  0.00  0.00    +0.000 C 
BRANCH  26  27
ATOM     27  C   UNL     1     -36.585  -7.212 -10.961  0.00  0.00    +0.000 A 
ATOM     28  C   UNL     1     -35.408  -7.875 -10.645  0.00  0.00    +0.000 A 
ATOM     29  C   UNL     1     -34.694  -8.519 -11.646  0.00  0.00    +0.000 A 
ATOM     30  C   UNL     1     -34.984  -8.343 -12.985  0.00  0.00    +0.000 A 
ATOM     31  C   UNL     1     -35.972  -7.430 -13.305  0.00  0.00    +0.000 A 
ATOM     32  C   UNL     1     -36.746  -6.891 -12.304  0.00  0.00    +0.000 A 
ENDBRANCH  26  27
ENDBRANCH  25  26
ENDBRANCH  18  22
ENDBRANCH   1  18
TORSDOF 6
ENDMDL
MODEL 4
REMARK VINA RESULT:      -8.0      4.220      6.967
REMARK  Name = 
REMARK  6 active torsions:
REMARK  status: ('A' for Active; 'I' for Inactive)
REMARK    1  A    between atoms: C_4  and  O_5
REMARK    2  A    between atoms: O_5  and  C_6
REMARK    3  A    between atoms: C_12  and  C_13
REMARK    4  A    between atoms: C_14  and  C_15
REMARK    5  A    between atoms: N_25  and  C_26
REMARK    6  A    between atoms: C_26  and  C_27
REMARK                            x       y       z     vdW  Elec       q    Type
REMARK                         _______ _______ _______ _____ _____    ______ ____
ROOT
ATOM      1  C   UNL     1     -30.984  -4.357  -4.677  0.00  0.00    +0.000 A 
ATOM      2  C   UNL     1     -29.677  -4.116  -4.256  0.00  0.00    +0.000 A 
ATOM      3  C   UNL     1     -28.690  -3.853  -5.207  0.00  0.00    +0.000 A 
ATOM      4  O   UNL     1     -27.746  -2.853  -4.930  0.00  0.00    +0.000 OA
ATOM      5  C   UNL     1     -29.061  -4.153  -6.517  0.00  0.00    +0.000 A 
ATOM      6  C   UNL     1     -30.405  -4.182  -6.896  0.00  0.00    +0.000 A 
ATOM      7  C   UNL     1     -31.413  -3.989  -5.952  0.00  0.00    +0.000 A 
ENDROOT
BRANCH   7   8
ATOM      8  C   UNL     1     -32.400  -2.906  -6.013  0.00  0.00    +0.000 C 
ATOM      9  C   UNL     1     -33.432  -2.673  -5.312  0.00  0.00    +0.000 C 
BRANCH   9  10
ATOM     10  C   UNL     1     -34.776  -3.260  -5.290  0.00  0.00    +0.000 A 
ATOM     11  C   UNL     1     -35.554  -3.331  -4.142  0.00  0.00    +0.000 A 
ATOM     12  C   UNL     1     -36.934  -3.157  -4.193  0.00  0.00    +0.000 A 
ATOM     13  O   UNL     1     -37.714  -3.137  -3.046  0.00  0.00    +0.000 OA
ATOM     14  C   UNL     1     -37.560  -2.855  -5.393  0.00  0.00    +0.000 A 
ATOM     15  C   UNL     1     -36.801  -2.764  -6.545  0.00  0.00    +0.000 A 
ATOM     16  O   UNL     1     -37.358  -2.267  -7.698  0.00  0.00    +0.000 OA
ATOM     17  C   UNL     1     -35.545  -3.354  -6.456  0.00  0.00    +0.000 A 
ENDBRANCH   9  10
ENDBRANCH   7   8
BRANCH   1  18
ATOM     18  O   UNL     1     -32.013  -4.725  -3.811  0.00  0.00    +0.000 OA
BRANCH  18  22
ATOM     19  O   UNL     1     -33.628  -7.846  -1.244  0.00  0.00    +0.000 OA
ATOM     20  C   UNL     1     -33.327  -7.404  -2.075  0.00  0.00    +0.000 C 
ATOM     21  C   UNL     1     -32.690  -6.053  -2.061  0.00  0.00    +0.000 C 
ATOM     22  C   UNL     1     -31.781  -6.199  -3.438  0.00  0.00    +0.000 C 
ATOM     23  C   UNL     1     -33.053  -6.719  -4.310  0.00  0.00    +0.000 C 
ATOM     24  O   UNL     1     -32.797  -7.219  -5.449  0.00  0.00    +0.000 OA
ATOM     25  N   UNL     1     -33.704  -7.634  -3.402  0.00  0.00    +0.000 N 
BRANCH  25  26
ATOM     26  C   UNL     1     -35.016  -8.163  -3.768  0.00  0.00    +0.000 C 
BRANCH  26  27
ATOM     27  C   UNL     1     -35.976  -7.109  -4.122  0.00  0.00    +0.000 A 
ATOM     28  C   UNL     1     -36.346  -6.801  -5.423  0.00  0.00    +0.000 A 
ATOM     29  C   UNL     1     -37.688  -6.634  -5.732  0.00  0.00    +0.000 A 
ATOM     30  C   UNL     1     -38.661  -6.539  -4.756  0.00  0.00    +0.000 A 
ATOM     31  C   UNL     1     -38.239  -6.538  -3.440  0.00  0.00    +0.000 A 
ATOM     32  C   UNL     1     -36.925  -6.822  -3.149  0.00  0.00    +0.000 A 
ENDBRANCH  26  27
ENDBRANCH  25  26
ENDBRANCH  18  22
ENDBRANCH   1  18
TORSDOF 6
ENDMDL
MODEL 5
REMARK VINA RESULT:      -7.7      2.517      9.078
REMARK  Name = 
REMARK  6 active torsions:
REMARK  status: ('A' for Active; 'I' for Inactive)
REMARK    1  A    between atoms: C_4  and  O_5
REMARK    2  A    between atoms: O_5  and  C_6
REMARK    3  A    between atoms: C_12  and  C_13
REMARK    4  A    between atoms: C_14  and  C_15
REMARK    5  A    between atoms: N_25  and  C_26
REMARK    6  A    between atoms: C_26  and  C_27
REMARK                            x       y       z     vdW  Elec       q    Type
REMARK                         _______ _______ _______ _____ _____    ______ ____
ROOT
ATOM      1  C   UNL     1     -36.259  -6.501  -7.292  0.00  0.00    +0.000 A 
ATOM      2  C   UNL     1     -37.040  -7.113  -6.313  0.00  0.00    +0.000 A 
ATOM      3  C   UNL     1     -38.368  -7.434  -6.600  0.00  0.00    +0.000 A 
ATOM      4  O   UNL     1     -38.871  -8.662  -6.144  0.00  0.00    +0.000 OA
ATOM      5  C   UNL     1     -38.867  -6.835  -7.756  0.00  0.00    +0.000 A 
ATOM      6  C   UNL     1     -38.012  -6.424  -8.780  0.00  0.00    +0.000 A 
ATOM      7  C   UNL     1     -36.629  -6.532  -8.636  0.00  0.00    +0.000 A 
ENDROOT
BRANCH   7   8
ATOM      8  C   UNL     1     -35.770  -7.323  -9.524  0.00  0.00    +0.000 C 
ATOM      9  C   UNL     1     -35.563  -7.249 -10.774  0.00  0.00    +0.000 C 
BRANCH   9  10
ATOM     10  C   UNL     1     -36.349  -7.665 -11.940  0.00  0.00    +0.000 A 
ATOM     11  C   UNL     1     -35.925  -7.471 -13.249  0.00  0.00    +0.000 A 
ATOM     12  C   UNL     1     -36.184  -8.414 -14.239  0.00  0.00    +0.000 A 
ATOM     13  O   UNL     1     -35.692  -8.277 -15.529  0.00  0.00    +0.000 OA
ATOM     14  C   UNL     1     -36.831  -9.600 -13.928  0.00  0.00    +0.000 A 
ATOM     15  C   UNL     1     -37.247  -9.820 -12.627  0.00  0.00    +0.000 A 
ATOM     16  O   UNL     1     -37.699 -11.061 -12.251  0.00  0.00    +0.000 OA
ATOM     17  C   UNL     1     -37.314  -8.674 -11.843  0.00  0.00    +0.000 A 
ENDBRANCH   9  10
ENDBRANCH   7   8
BRANCH   1  18
ATOM     18  O   UNL     1     -34.958  -6.055  -7.066  0.00  0.00    +0.000 OA
BRANCH  18  22
ATOM     19  O   UNL     1     -34.733  -2.239  -4.986  0.00  0.00    +0.000 OA
ATOM     20  C   UNL     1     -34.494  -2.951  -5.629  0.00  0.00    +0.000 C 
ATOM     21  C   UNL     1     -35.318  -4.187  -5.775  0.00  0.00    +0.000 C 
ATOM     22  C   UNL     1     -34.946  -4.543  -7.349  0.00  0.00    +0.000 C 
ATOM     23  C   UNL     1     -33.346  -4.408  -7.078  0.00  0.00    +0.000 C 
ATOM     24  O   UNL     1     -32.596  -4.360  -8.102  0.00  0.00    +0.000 OA
ATOM     25  N   UNL     1     -33.267  -3.236  -6.239  0.00  0.00    +0.000 N 
BRANCH  25  26
ATOM     26  C   UNL     1     -31.985  -2.906  -5.620  0.00  0.00    +0.000 C 
BRANCH  26  27
ATOM     27  C   UNL     1     -31.335  -4.071  -5.004  0.00  0.00    +0.000 A 
ATOM     28  C   UNL     1     -30.023  -4.449  -5.252  0.00  0.00    +0.000 A 
ATOM     29  C   UNL     1     -29.192  -4.775  -4.190  0.00  0.00    +0.000 A 
ATOM     30  C   UNL     1     -29.673  -4.956  -2.909  0.00  0.00    +0.000 A 
ATOM     31  C   UNL     1     -31.042  -4.878  -2.729  0.00  0.00    +0.000 A 
ATOM     32  C   UNL     1     -31.837  -4.441  -3.763  0.00  0.00    +0.000 A 
ENDBRANCH  26  27
ENDBRANCH  25  26
ENDBRANCH  18  22
ENDBRANCH   1  18
TORSDOF 6
ENDMDL
MODEL 6
REMARK VINA RESULT:      -7.6     15.681     20.618
REMARK  Name = 
REMARK  6 active torsions:
REMARK  status: ('A' for Active; 'I' for Inactive)
REMARK    1  A    between atoms: C_4  and  O_5
REMARK    2  A    between atoms: O_5  and  C_6
REMARK    3  A    between atoms: C_12  and  C_13
REMARK    4  A    between atoms: C_14  and  C_15
REMARK    5  A    between atoms: N_25  and  C_26
REMARK    6  A    between atoms: C_26  and  C_27
REMARK                            x       y       z     vdW  Elec       q    Type
REMARK                         _______ _______ _______ _____ _____    ______ ____
ROOT
ATOM      1  C   UNL     1     -26.298   5.658  -0.030  0.00  0.00    +0.000 A 
ATOM      2  C   UNL     1     -25.408   4.668   0.383  0.00  0.00    +0.000 A 
ATOM      3  C   UNL     1     -25.199   3.554  -0.432  0.00  0.00    +0.000 A 
ATOM      4  O   UNL     1     -23.891   3.064  -0.570  0.00  0.00    +0.000 OA
ATOM      5  C   UNL     1     -26.137   3.405  -1.453  0.00  0.00    +0.000 A 
ATOM      6  C   UNL     1     -26.850   4.502  -1.941  0.00  0.00    +0.000 A 
ATOM      7  C   UNL     1     -26.697   5.762  -1.362  0.00  0.00    +0.000 A 
ENDROOT
BRANCH   7   8
ATOM      8  C   UNL     1     -26.227   6.947  -2.086  0.00  0.00    +0.000 C 
ATOM      9  C   UNL     1     -25.164   7.157  -2.749  0.00  0.00    +0.000 C 
BRANCH   9  10
ATOM     10  C   UNL     1     -23.780   7.432  -2.352  0.00  0.00    +0.000 A 
ATOM     11  C   UNL     1     -23.403   8.573  -1.657  0.00  0.00    +0.000 A 
ATOM     12  C   UNL     1     -22.409   8.530  -0.682  0.00  0.00    +0.000 A 
ATOM     13  O   UNL     1     -22.083   9.641   0.081  0.00  0.00    +0.000 OA
ATOM     14  C   UNL     1     -21.806   7.328  -0.347  0.00  0.00    +0.000 A 
ATOM     15  C   UNL     1     -22.179   6.177  -1.016  0.00  0.00    +0.000 A 
ATOM     16  O   UNL     1     -21.753   4.951  -0.565  0.00  0.00    +0.000 OA
ATOM     17  C   UNL     1     -22.845   6.398  -2.216  0.00  0.00    +0.000 A 
ENDBRANCH   9  10
ENDBRANCH   7   8
BRANCH   1  18
ATOM     18  O   UNL     1     -26.645   6.754   0.759  0.00  0.00    +0.000 OA
BRANCH  18  22
ATOM     19  O   UNL     1     -24.866  10.380   2.380  0.00  0.00    +0.000 OA
ATOM     20  C   UNL     1     -25.184   9.445   2.354  0.00  0.00    +0.000 C 
ATOM     21  C   UNL     1     -25.719   8.830   1.103  0.00  0.00    +0.000 C 
ATOM     22  C   UNL     1     -25.354   7.248   1.434  0.00  0.00    +0.000 C 
ATOM     23  C   UNL     1     -26.040   7.322   2.909  0.00  0.00    +0.000 C 
ATOM     24  O   UNL     1     -25.796   6.359   3.699  0.00  0.00    +0.000 OA
ATOM     25  N   UNL     1     -25.597   8.607   3.397  0.00  0.00    +0.000 N 
BRANCH  25  26
ATOM     26  C   UNL     1     -26.178   9.120   4.636  0.00  0.00    +0.000 C 
BRANCH  26  27
ATOM     27  C   UNL     1     -25.178   9.316   5.694  0.00  0.00    +0.000 A 
ATOM     28  C   UNL     1     -24.571  10.532   5.972  0.00  0.00    +0.000 A 
ATOM     29  C   UNL     1     -24.473  10.964   7.287  0.00  0.00    +0.000 A 
ATOM     30  C   UNL     1     -24.753  10.135   8.356  0.00  0.00    +0.000 A 
ATOM     31  C   UNL     1     -25.064   8.818   8.071  0.00  0.00    +0.000 A 
ATOM     32  C   UNL     1     -25.271   8.437   6.766  0.00  0.00    +0.000 A 
ENDBRANCH  26  27
ENDBRANCH  25  26
ENDBRANCH  18  22
ENDBRANCH   1  18
TORSDOF 6
ENDMDL
MODEL 7
REMARK VINA RESULT:      -7.6      4.574      6.862
REMARK  Name = 
REMARK  6 active torsions:
REMARK  status: ('A' for Active; 'I' for Inactive)
REMARK    1  A    between atoms: C_4  and  O_5
REMARK    2  A    between atoms: O_5  and  C_6
REMARK    3  A    between atoms: C_12  and  C_13
REMARK    4  A    between atoms: C_14  and  C_15
REMARK    5  A    between atoms: N_25  and  C_26
REMARK    6  A    between atoms: C_26  and  C_27
REMARK                            x       y       z     vdW  Elec       q    Type
REMARK                         _______ _______ _______ _____ _____    ______ ____
ROOT
ATOM      1  C   UNL     1     -34.572  -4.051  -5.246  0.00  0.00    +0.000 A 
ATOM      2  C   UNL     1     -34.147  -4.036  -6.574  0.00  0.00    +0.000 A 
ATOM      3  C   UNL     1     -32.891  -3.514  -6.884  0.00  0.00    +0.000 A 
ATOM      4  O   UNL     1     -32.109  -4.180  -7.840  0.00  0.00    +0.000 OA
ATOM      5  C   UNL     1     -32.302  -2.784  -5.852  0.00  0.00    +0.000 A 
ATOM      6  C   UNL     1     -32.656  -3.006  -4.520  0.00  0.00    +0.000 A 
ATOM      7  C   UNL     1     -33.666  -3.911  -4.195  0.00  0.00    +0.000 A 
ENDROOT
BRANCH   7   8
ATOM      8  C   UNL     1     -33.469  -5.094  -3.351  0.00  0.00    +0.000 C 
ATOM      9  C   UNL     1     -32.642  -5.328  -2.416  0.00  0.00    +0.000 C 
BRANCH   9  10
ATOM     10  C   UNL     1     -31.217  -5.669  -2.410  0.00  0.00    +0.000 A 
ATOM     11  C   UNL     1     -30.748  -6.974  -2.497  0.00  0.00    +0.000 A 
ATOM     12  C   UNL     1     -29.591  -7.281  -3.206  0.00  0.00    +0.000 A 
ATOM     13  O   UNL     1     -29.159  -8.588  -3.375  0.00  0.00    +0.000 OA
ATOM     14  C   UNL     1     -28.904  -6.290  -3.891  0.00  0.00    +0.000 A 
ATOM     15  C   UNL     1     -29.362  -4.987  -3.831  0.00  0.00    +0.000 A 
ATOM     16  O   UNL     1     -28.827  -4.031  -4.660  0.00  0.00    +0.000 OA
ATOM     17  C   UNL     1     -30.245  -4.734  -2.787  0.00  0.00    +0.000 A 
ENDBRANCH   9  10
ENDBRANCH   7   8
BRANCH   1  18
ATOM     18  O   UNL     1     -35.846  -4.459  -4.853  0.00  0.00    +0.000 OA
BRANCH  18  22
ATOM     19  O   UNL     1     -40.101  -3.907  -5.582  0.00  0.00    +0.000 OA
ATOM     20  C   UNL     1     -39.199  -3.723  -5.223  0.00  0.00    +0.000 C 
ATOM     21  C   UNL     1     -38.016  -4.550  -5.607  0.00  0.00    +0.000 C 
ATOM     22  C   UNL     1     -36.837  -3.409  -5.382  0.00  0.00    +0.000 C 
ATOM     23  C   UNL     1     -37.382  -3.033  -3.894  0.00  0.00    +0.000 C 
ATOM     24  O   UNL     1     -36.917  -1.976  -3.367  0.00  0.00    +0.000 OA
ATOM     25  N   UNL     1     -38.813  -3.015  -4.079  0.00  0.00    +0.000 N 
BRANCH  25  26
ATOM     26  C   UNL     1     -39.667  -2.903  -2.898  0.00  0.00    +0.000 C 
BRANCH  26  27
ATOM     27  C   UNL     1     -39.270  -3.819  -1.821  0.00  0.00    +0.000 A 
ATOM     28  C   UNL     1     -39.059  -3.427  -0.507  0.00  0.00    +0.000 A 
ATOM     29  C   UNL     1     -39.612  -4.169   0.527  0.00  0.00    +0.000 A 
ATOM     30  C   UNL     1     -40.179  -5.410   0.319  0.00  0.00    +0.000 A 
ATOM     31  C   UNL     1     -40.109  -5.933  -0.959  0.00  0.00    +0.000 A 
ATOM     32  C   UNL     1     -39.665  -5.140  -1.991  0.00  0.00    +0.000 A 
ENDBRANCH  26  27
ENDBRANCH  25  26
ENDBRANCH  18  22
ENDBRANCH   1  18
TORSDOF 6
ENDMDL
MODEL 8
REMARK VINA RESULT:      -7.5     15.499     18.231
REMARK  Name = 
REMARK  6 active torsions:
REMARK  status: ('A' for Active; 'I' for Inactive)
REMARK    1  A    between atoms: C_4  and  O_5
REMARK    2  A    between atoms: O_5  and  C_6
REMARK    3  A    between atoms: C_12  and  C_13
REMARK    4  A    between atoms: C_14  and  C_15
REMARK    5  A    between atoms: N_25  and  C_26
REMARK    6  A    between atoms: C_26  and  C_27
REMARK                            x       y       z     vdW  Elec       q    Type
REMARK                         _______ _______ _______ _____ _____    ______ ____
ROOT
ATOM      1  C   UNL     1     -26.553   6.031  -1.903  0.00  0.00    +0.000 A 
ATOM      2  C   UNL     1     -27.455   6.371  -0.895  0.00  0.00    +0.000 A 
ATOM      3  C   UNL     1     -27.901   5.383  -0.016  0.00  0.00    +0.000 A 
ATOM      4  O   UNL     1     -28.025   5.705   1.343  0.00  0.00    +0.000 OA
ATOM      5  C   UNL     1     -27.619   4.079  -0.426  0.00  0.00    +0.000 A 
ATOM      6  C   UNL     1     -26.561   3.812  -1.297  0.00  0.00    +0.000 A 
ATOM      7  C   UNL     1     -25.809   4.853  -1.841  0.00  0.00    +0.000 A 
ENDROOT
BRANCH   7   8
ATOM      8  C   UNL     1     -24.364   5.012  -1.648  0.00  0.00    +0.000 C 
ATOM      9  C   UNL     1     -23.665   5.096  -0.591  0.00  0.00    +0.000 C 
BRANCH   9  10
ATOM     10  C   UNL     1     -23.435   6.182   0.367  0.00  0.00    +0.000 A 
ATOM     11  C   UNL     1     -22.462   7.156   0.191  0.00  0.00    +0.000 A 
ATOM     12  C   UNL     1     -22.682   8.476   0.576  0.00  0.00    +0.000 A 
ATOM     13  O   UNL     1     -21.755   9.477   0.327  0.00  0.00    +0.000 OA
ATOM     14  C   UNL     1     -23.906   8.859   1.101  0.00  0.00    +0.000 A 
ATOM     15  C   UNL     1     -24.896   7.907   1.269  0.00  0.00    +0.000 A 
ATOM     16  O   UNL     1     -26.174   8.294   1.588  0.00  0.00    +0.000 OA
ATOM     17  C   UNL     1     -24.440   6.594   1.251  0.00  0.00    +0.000 A 
ENDBRANCH   9  10
ENDBRANCH   7   8
BRANCH   1  18
ATOM     18  O   UNL     1     -26.129   6.926  -2.885  0.00  0.00    +0.000 OA
BRANCH  18  22
ATOM     19  O   UNL     1     -23.495  10.382  -2.648  0.00  0.00    +0.000 OA
ATOM     20  C   UNL     1     -24.324   9.867  -2.804  0.00  0.00    +0.000 C 
ATOM     21  C   UNL     1     -24.410   8.406  -2.511  0.00  0.00    +0.000 C 
ATOM     22  C   UNL     1     -26.038   8.311  -2.223  0.00  0.00    +0.000 C 
ATOM     23  C   UNL     1     -26.403   9.099  -3.600  0.00  0.00    +0.000 C 
ATOM     24  O   UNL     1     -27.600   9.505  -3.724  0.00  0.00    +0.000 OA
ATOM     25  N   UNL     1     -25.420  10.156  -3.626  0.00  0.00    +0.000 N 
BRANCH  25  26
ATOM     26  C   UNL     1     -25.305  10.971  -4.834  0.00  0.00    +0.000 C 
BRANCH  26  27
ATOM     27  C   UNL     1     -24.908  10.189  -6.012  0.00  0.00    +0.000 A 
ATOM     28  C   UNL     1     -23.926   9.209  -5.998  0.00  0.00    +0.000 A 
ATOM     29  C   UNL     1     -24.172   7.985  -6.604  0.00  0.00    +0.000 A 
ATOM     30  C   UNL     1     -25.268   7.774  -7.417  0.00  0.00    +0.000 A 
ATOM     31  C   UNL     1     -26.084   8.860  -7.674  0.00  0.00    +0.000 A 
ATOM     32  C   UNL     1     -25.895  10.030  -6.976  0.00  0.00    +0.000 A 
ENDBRANCH  26  27
ENDBRANCH  25  26
ENDBRANCH  18  22
ENDBRANCH   1  18
TORSDOF 6
ENDMDL
MODEL 9
REMARK VINA RESULT:      -7.4     28.970     32.282
REMARK  Name = 
REMARK  6 active torsions:
REMARK  status: ('A' for Active; 'I' for Inactive)
REMARK    1  A    between atoms: C_4  and  O_5
REMARK    2  A    between atoms: O_5  and  C_6
REMARK    3  A    between atoms: C_12  and  C_13
REMARK    4  A    between atoms: C_14  and  C_15
REMARK    5  A    between atoms: N_25  and  C_26
REMARK    6  A    between atoms: C_26  and  C_27
REMARK                            x       y       z     vdW  Elec       q    Type
REMARK                         _______ _______ _______ _____ _____    ______ ____
ROOT
ATOM      1  C   UNL     1     -14.368  17.683  -0.686  0.00  0.00    +0.000 A 
ATOM      2  C   UNL     1     -15.276  18.741  -0.692  0.00  0.00    +0.000 A 
ATOM      3  C   UNL     1     -16.590  18.516  -0.278  0.00  0.00    +0.000 A 
ATOM      4  O   UNL     1     -17.214  19.488   0.518  0.00  0.00    +0.000 OA
ATOM      5  C   UNL     1     -16.938  17.169  -0.178  0.00  0.00    +0.000 A 
ATOM      6  C   UNL     1     -15.966  16.187   0.023  0.00  0.00    +0.000 A 
ATOM      7  C   UNL     1     -14.612  16.524   0.049  0.00  0.00    +0.000 A 
ENDROOT
BRANCH   7   8
ATOM      8  C   UNL     1     -13.730  16.290   1.197  0.00  0.00    +0.000 C 
ATOM      9  C   UNL     1     -13.134  15.242   1.596  0.00  0.00    +0.000 C 
BRANCH   9  10
ATOM     10  C   UNL     1     -13.594  14.045   2.306  0.00  0.00    +0.000 A 
ATOM     11  C   UNL     1     -14.619  13.233   1.840  0.00  0.00    +0.000 A 
ATOM     12  C   UNL     1     -14.578  11.851   2.001  0.00  0.00    +0.000 A 
ATOM     13  O   UNL     1     -15.550  11.020   1.464  0.00  0.00    +0.000 OA
ATOM     14  C   UNL     1     -13.479  11.246   2.591  0.00  0.00    +0.000 A 
ATOM     15  C   UNL     1     -12.439  12.035   3.048  0.00  0.00    +0.000 A 
ATOM     16  O   UNL     1     -11.258  11.454   3.443  0.00  0.00    +0.000 OA
ATOM     17  C   UNL     1     -12.764  13.376   3.215  0.00  0.00    +0.000 A 
ENDBRANCH   9  10
ENDBRANCH   7   8
BRANCH   1  18
ATOM     18  O   UNL     1     -13.066  17.788  -1.175  0.00  0.00    +0.000 OA
BRANCH  18  22
ATOM     19  O   UNL     1     -10.450  19.678  -4.093  0.00  0.00    +0.000 OA
ATOM     20  C   UNL     1     -11.247  19.214  -3.739  0.00  0.00    +0.000 C 
ATOM     21  C   UNL     1     -11.416  18.945  -2.280  0.00  0.00    +0.000 C 
ATOM     22  C   UNL     1     -13.070  18.908  -2.228  0.00  0.00    +0.000 C 
ATOM     23  C   UNL     1     -13.159  17.865  -3.476  0.00  0.00    +0.000 C 
ATOM     24  O   UNL     1     -14.304  17.699  -4.000  0.00  0.00    +0.000 OA
ATOM     25  N   UNL     1     -12.166  18.382  -4.388  0.00  0.00    +0.000 N 
BRANCH  25  26
ATOM     26  C   UNL     1     -11.814  17.584  -5.561  0.00  0.00    +0.000 C 
BRANCH  26  27
ATOM     27  C   UNL     1     -12.220  18.217  -6.822  0.00  0.00    +0.000 A 
ATOM     28  C   UNL     1     -12.781  19.483  -6.910  0.00  0.00    +0.000 A 
ATOM     29  C   UNL     1     -12.310  20.376  -7.861  0.00  0.00    +0.000 A 
ATOM     30  C   UNL     1     -11.457  19.988  -8.876  0.00  0.00    +0.000 A 
ATOM     31  C   UNL     1     -11.145  18.644  -8.961  0.00  0.00    +0.000 A 
ATOM     32  C   UNL     1     -11.523  17.795  -7.948  0.00  0.00    +0.000 A 
ENDBRANCH  26  27
ENDBRANCH  25  26
ENDBRANCH  18  22
ENDBRANCH   1  18
TORSDOF 6
ENDMDL
MODEL 10
REMARK VINA RESULT:      -7.3     20.602     22.343
REMARK  Name = 
REMARK  6 active torsions:
REMARK  status: ('A' for Active; 'I' for Inactive)
REMARK    1  A    between atoms: C_4  and  O_5
REMARK    2  A    between atoms: O_5  and  C_6
REMARK    3  A    between atoms: C_12  and  C_13
REMARK    4  A    between atoms: C_14  and  C_15
REMARK    5  A    between atoms: N_25  and  C_26
REMARK    6  A    between atoms: C_26  and  C_27
REMARK                            x       y       z     vdW  Elec       q    Type
REMARK                         _______ _______ _______ _____ _____    ______ ____
ROOT
ATOM      1  C   UNL     1     -18.998  -6.897   7.727  0.00  0.00    +0.000 A 
ATOM      2  C   UNL     1     -20.278  -7.299   8.106  0.00  0.00    +0.000 A 
ATOM      3  C   UNL     1     -21.004  -6.514   9.004  0.00  0.00    +0.000 A 
ATOM      4  O   UNL     1     -22.374  -6.328   8.771  0.00  0.00    +0.000 OA
ATOM      5  C   UNL     1     -20.245  -5.546   9.663  0.00  0.00    +0.000 A 
ATOM      6  C   UNL     1     -19.062  -5.057   9.107  0.00  0.00    +0.000 A 
ATOM      7  C   UNL     1     -18.568  -5.584   7.914  0.00  0.00    +0.000 A 
ENDROOT
BRANCH   7   8
ATOM      8  C   UNL     1     -18.352  -4.796   6.695  0.00  0.00    +0.000 C 
ATOM      9  C   UNL     1     -17.454  -3.951   6.392  0.00  0.00    +0.000 C 
BRANCH   9  10
ATOM     10  C   UNL     1     -17.235  -2.552   6.770  0.00  0.00    +0.000 A 
ATOM     11  C   UNL     1     -16.346  -1.717   6.107  0.00  0.00    +0.000 A 
ATOM     12  C   UNL     1     -16.630  -0.368   5.910  0.00  0.00    +0.000 A 
ATOM     13  O   UNL     1     -15.794   0.458   5.173  0.00  0.00    +0.000 OA
ATOM     14  C   UNL     1     -17.839   0.163   6.332  0.00  0.00    +0.000 A 
ATOM     15  C   UNL     1     -18.746  -0.655   6.980  0.00  0.00    +0.000 A 
ATOM     16  O   UNL     1     -20.023  -0.211   7.220  0.00  0.00    +0.000 OA
ATOM     17  C   UNL     1     -18.202  -1.832   7.482  0.00  0.00    +0.000 A 
ENDBRANCH   9  10
ENDBRANCH   7   8
BRANCH   1  18
ATOM     18  O   UNL     1     -18.163  -7.664   6.916  0.00  0.00    +0.000 OA
BRANCH  18  22
ATOM     19  O   UNL     1     -17.813  -9.101   2.824  0.00  0.00    +0.000 OA
ATOM     20  C   UNL     1     -18.053  -9.107   3.782  0.00  0.00    +0.000 C 
ATOM     21  C   UNL     1     -17.837  -7.915   4.654  0.00  0.00    +0.000 C 
ATOM     22  C   UNL     1     -19.028  -8.209   5.768  0.00  0.00    +0.000 C 
ATOM     23  C   UNL     1     -18.536  -9.744   5.997  0.00  0.00    +0.000 C 
ATOM     24  O   UNL     1     -19.327 -10.507   6.632  0.00  0.00    +0.000 OA
ATOM     25  N   UNL     1     -18.248 -10.185   4.653  0.00  0.00    +0.000 N 
BRANCH  25  26
ATOM     26  C   UNL     1     -17.585 -11.475   4.470  0.00  0.00    +0.000 C 
BRANCH  26  27
ATOM     27  C   UNL     1     -16.127 -11.392   4.626  0.00  0.00    +0.000 A 
ATOM     28  C   UNL     1     -15.494 -10.829   5.725  0.00  0.00    +0.000 A 
ATOM     29  C   UNL     1     -14.441 -11.502   6.328  0.00  0.00    +0.000 A 
ATOM     30  C   UNL     1     -13.845 -12.604   5.748  0.00  0.00    +0.000 A 
ATOM     31  C   UNL     1     -14.286 -12.976   4.492  0.00  0.00    +0.000 A 
ATOM     32  C   UNL     1     -15.403 -12.375   3.961  0.00  0.00    +0.000 A 
ENDBRANCH  26  27
ENDBRANCH  25  26
ENDBRANCH  18  22
ENDBRANCH   1  18
TORSDOF 6
ENDMDL
