MODEL 1
REMARK VINA RESULT:      -8.3      0.000      0.000
REMARK  Name = 
REMARK  6 active torsions:
REMARK  status: ('A' for Active; 'I' for Inactive)
REMARK    1  A    between atoms: C_2  and  O_5
REMARK    2  A    between atoms: O_5  and  C_6
REMARK    3  A    between atoms: C_10  and  O_11
REMARK    4  A    between atoms: O_11  and  C_12
REMARK    5  A    between atoms: C_18  and  C_19
REMARK    6  A    between atoms: C_20  and  C_21
REMARK                            x       y       z     vdW  Elec       q    Type
REMARK                         _______ _______ _______ _____ _____    ______ ____
ROOT
ATOM      1  C   UNL     1     -13.756  17.498   0.855  0.00  0.00    +0.000 A 
ATOM      2  C   UNL     1     -14.487  18.552   1.374  0.00  0.00    +0.000 A 
ATOM      3  C   UNL     1     -13.981  19.421   2.337  0.00  0.00    +0.000 A 
ATOM      4  O   UNL     1     -14.343  20.764   2.163  0.00  0.00    +0.000 OA
ATOM      5  C   UNL     1     -12.641  19.221   2.653  0.00  0.00    +0.000 A 
ATOM      6  C   UNL     1     -12.122  17.938   2.531  0.00  0.00    +0.000 A 
ATOM      7  C   UNL     1     -12.635  17.096   1.566  0.00  0.00    +0.000 A 
ENDROOT
BRANCH   7   8
ATOM      8  C   UNL     1     -12.378  15.651   1.556  0.00  0.00    +0.000 C 
ATOM      9  C   UNL     1     -13.009  14.926   2.477  0.00  0.00    +0.000 C 
BRANCH   9  10
ATOM     10  C   UNL     1     -13.407  13.538   2.249  0.00  0.00    +0.000 A 
ATOM     11  C   UNL     1     -14.651  13.208   1.731  0.00  0.00    +0.000 A 
ATOM     12  C   UNL     1     -15.059  11.890   1.757  0.00  0.00    +0.000 A 
ATOM     13  O   UNL     1     -16.181  11.437   1.077  0.00  0.00    +0.000 OA
ATOM     14  C   UNL     1     -14.314  10.936   2.424  0.00  0.00    +0.000 A 
ATOM     15  C   UNL     1     -13.130  11.270   3.070  0.00  0.00    +0.000 A 
ATOM     16  O   UNL     1     -12.558  10.414   3.988  0.00  0.00    +0.000 OA
ATOM     17  C   UNL     1     -12.615  12.516   2.759  0.00  0.00    +0.000 A 
ENDBRANCH   9  10
ENDBRANCH   7   8
BRANCH   1  18
ATOM     18  O   UNL     1     -13.987  16.961  -0.419  0.00  0.00    +0.000 OA
BRANCH  18  23
ATOM     19  C   UNL     1     -15.144  18.067  -4.955  0.00  0.00    +0.000 C 
ATOM     20  O   UNL     1     -14.418  17.829  -5.970  0.00  0.00    +0.000 OA
ATOM     21  N   UNL     1     -14.572  18.038  -3.642  0.00  0.00    +0.000 N 
ATOM     22  C   UNL     1     -14.960  17.198  -2.507  0.00  0.00    +0.000 C 
ATOM     23  C   UNL     1     -14.211  18.143  -1.387  0.00  0.00    +0.000 C 
ATOM     24  C   UNL     1     -12.763  17.869  -2.127  0.00  0.00    +0.000 C 
ATOM     25  C   UNL     1     -13.198  18.407  -3.446  0.00  0.00    +0.000 C 
ATOM     26  O   UNL     1     -12.551  19.198  -4.167  0.00  0.00    +0.000 OA
BRANCH  19  27
ATOM     27  O   UNL     1     -16.341  18.758  -5.175  0.00  0.00    +0.000 OA
BRANCH  27  29
ATOM     28  C   UNL     1     -17.575  18.081  -5.302  0.00  0.00    +0.000 C 
ATOM     29  C   UNL     1     -17.499  17.948  -5.327  0.00  0.00    +0.000 C 
ATOM     30  C   UNL     1     -18.254  18.322  -6.595  0.00  0.00    +0.000 C 
ATOM     31  C   UNL     1     -18.354  17.824  -4.101  0.00  0.00    +0.000 C 
ENDBRANCH  27  29
ENDBRANCH  19  27
ENDBRANCH  18  23
ENDBRANCH   1  18
TORSDOF 6
ENDMDL
MODEL 2
REMARK VINA RESULT:      -7.7     15.395     18.993
REMARK  Name = 
REMARK  6 active torsions:
REMARK  status: ('A' for Active; 'I' for Inactive)
REMARK    1  A    between atoms: C_2  and  O_5
REMARK    2  A    between atoms: O_5  and  C_6
REMARK    3  A    between atoms: C_10  and  O_11
REMARK    4  A    between atoms: O_11  and  C_12
REMARK    5  A    between atoms: C_18  and  C_19
REMARK    6  A    between atoms: C_20  and  C_21
REMARK                            x       y       z     vdW  Elec       q    Type
REMARK                         _______ _______ _______ _____ _____    ______ ____
ROOT
ATOM      1  C   UNL     1     -26.432   8.800  -5.846  0.00  0.00    +0.000 A 
ATOM      2  C   UNL     1     -25.951   8.087  -4.762  0.00  0.00    +0.000 A 
ATOM      3  C   UNL     1     -24.591   7.940  -4.497  0.00  0.00    +0.000 A 
ATOM      4  O   UNL     1     -24.249   8.007  -3.140  0.00  0.00    +0.000 OA
ATOM      5  C   UNL     1     -23.754   8.665  -5.340  0.00  0.00    +0.000 A 
ATOM      6  C   UNL     1     -24.188   8.921  -6.635  0.00  0.00    +0.000 A 
ATOM      7  C   UNL     1     -25.539   9.068  -6.872  0.00  0.00    +0.000 A 
ENDROOT
BRANCH   7   8
ATOM      8  C   UNL     1     -26.115   9.035  -8.223  0.00  0.00    +0.000 C 
ATOM      9  C   UNL     1     -26.090   7.862  -8.853  0.00  0.00    +0.000 C 
BRANCH   9  10
ATOM     10  C   UNL     1     -27.114   7.466  -9.818  0.00  0.00    +0.000 A 
ATOM     11  C   UNL     1     -27.261   6.150 -10.231  0.00  0.00    +0.000 A 
ATOM     12  C   UNL     1     -28.077   5.873 -11.309  0.00  0.00    +0.000 A 
ATOM     13  O   UNL     1     -28.451   4.582 -11.656  0.00  0.00    +0.000 OA
ATOM     14  C   UNL     1     -28.619   6.897 -12.062  0.00  0.00    +0.000 A 
ATOM     15  C   UNL     1     -28.373   8.228 -11.749  0.00  0.00    +0.000 A 
ATOM     16  O   UNL     1     -28.637   9.230 -12.659  0.00  0.00    +0.000 OA
ATOM     17  C   UNL     1     -27.814   8.452 -10.503  0.00  0.00    +0.000 A 
ENDBRANCH   9  10
ENDBRANCH   7   8
BRANCH   1  18
ATOM     18  O   UNL     1     -27.695   9.407  -5.863  0.00  0.00    +0.000 OA
BRANCH  18  23
ATOM     19  C   UNL     1     -31.946   7.815  -7.458  0.00  0.00    +0.000 C 
ATOM     20  O   UNL     1     -33.056   8.408  -7.285  0.00  0.00    +0.000 OA
ATOM     21  N   UNL     1     -30.814   8.164  -6.651  0.00  0.00    +0.000 N 
ATOM     22  C   UNL     1     -29.508   8.657  -7.095  0.00  0.00    +0.000 C 
ATOM     23  C   UNL     1     -28.748   8.291  -5.681  0.00  0.00    +0.000 C 
ATOM     24  C   UNL     1     -29.758   9.315  -4.875  0.00  0.00    +0.000 C 
ATOM     25  C   UNL     1     -31.002   8.618  -5.303  0.00  0.00    +0.000 C 
ATOM     26  O   UNL     1     -31.965   8.311  -4.564  0.00  0.00    +0.000 OA
BRANCH  19  27
ATOM     27  O   UNL     1     -31.978   6.576  -8.108  0.00  0.00    +0.000 OA
BRANCH  27  29
ATOM     28  C   UNL     1     -31.432   6.486  -9.408  0.00  0.00    +0.000 C 
ATOM     29  C   UNL     1     -31.291   6.516  -9.350  0.00  0.00    +0.000 C 
ATOM     30  C   UNL     1     -31.710   7.669 -10.252  0.00  0.00    +0.000 C 
ATOM     31  C   UNL     1     -31.290   5.170 -10.012  0.00  0.00    +0.000 C 
ENDBRANCH  27  29
ENDBRANCH  19  27
ENDBRANCH  18  23
ENDBRANCH   1  18
TORSDOF 6
ENDMDL
MODEL 3
REMARK VINA RESULT:      -7.6     12.013     14.559
REMARK  Name = 
REMARK  6 active torsions:
REMARK  status: ('A' for Active; 'I' for Inactive)
REMARK    1  A    between atoms: C_2  and  O_5
REMARK    2  A    between atoms: O_5  and  C_6
REMARK    3  A    between atoms: C_10  and  O_11
REMARK    4  A    between atoms: O_11  and  C_12
REMARK    5  A    between atoms: C_18  and  C_19
REMARK    6  A    between atoms: C_20  and  C_21
REMARK                            x       y       z     vdW  Elec       q    Type
REMARK                         _______ _______ _______ _____ _____    ______ ____
ROOT
ATOM      1  C   UNL     1     -24.830   9.694  -4.641  0.00  0.00    +0.000 A 
ATOM      2  C   UNL     1     -24.934  11.059  -4.444  0.00  0.00    +0.000 A 
ATOM      3  C   UNL     1     -23.850  11.854  -4.079  0.00  0.00    +0.000 A 
ATOM      4  O   UNL     1     -23.812  13.111  -4.699  0.00  0.00    +0.000 OA
ATOM      5  C   UNL     1     -22.628  11.190  -4.045  0.00  0.00    +0.000 A 
ATOM      6  C   UNL     1     -22.627   9.833  -3.748  0.00  0.00    +0.000 A 
ATOM      7  C   UNL     1     -23.709   9.064  -4.123  0.00  0.00    +0.000 A 
ENDROOT
BRANCH   7   8
ATOM      8  C   UNL     1     -23.943   7.712  -3.598  0.00  0.00    +0.000 C 
ATOM      9  C   UNL     1     -23.550   7.483  -2.347  0.00  0.00    +0.000 C 
BRANCH   9  10
ATOM     10  C   UNL     1     -24.230   6.529  -1.472  0.00  0.00    +0.000 A 
ATOM     11  C   UNL     1     -24.085   6.569  -0.093  0.00  0.00    +0.000 A 
ATOM     12  C   UNL     1     -24.554   5.513   0.661  0.00  0.00    +0.000 A 
ATOM     13  O   UNL     1     -24.647   5.560   2.045  0.00  0.00    +0.000 OA
ATOM     14  C   UNL     1     -25.021   4.365   0.049  0.00  0.00    +0.000 A 
ATOM     15  C   UNL     1     -25.047   4.247  -1.335  0.00  0.00    +0.000 A 
ATOM     16  O   UNL     1     -25.205   3.017  -1.938  0.00  0.00    +0.000 OA
ATOM     17  C   UNL     1     -24.860   5.426  -2.035  0.00  0.00    +0.000 A 
ENDBRANCH   9  10
ENDBRANCH   7   8
BRANCH   1  18
ATOM     18  O   UNL     1     -25.692   8.975  -5.482  0.00  0.00    +0.000 OA
BRANCH  18  23
ATOM     19  C   UNL     1     -27.812   9.056  -9.800  0.00  0.00    +0.000 C 
ATOM     20  O   UNL     1     -27.790   8.103 -10.639  0.00  0.00    +0.000 OA
ATOM     21  N   UNL     1     -26.868   9.084  -8.722  0.00  0.00    +0.000 N 
ATOM     22  C   UNL     1     -27.142   9.105  -7.284  0.00  0.00    +0.000 C 
ATOM     23  C   UNL     1     -25.639   9.639  -6.876  0.00  0.00    +0.000 C 
ATOM     24  C   UNL     1     -24.979   8.284  -7.545  0.00  0.00    +0.000 C 
ATOM     25  C   UNL     1     -25.559   8.522  -8.896  0.00  0.00    +0.000 C 
ATOM     26  O   UNL     1     -24.949   8.431  -9.985  0.00  0.00    +0.000 OA
BRANCH  19  27
ATOM     27  O   UNL     1     -28.452  10.238 -10.192  0.00  0.00    +0.000 OA
BRANCH  27  29
ATOM     28  C   UNL     1     -27.774  11.248 -10.910  0.00  0.00    +0.000 C 
ATOM     29  C   UNL     1     -27.651  11.154 -10.926  0.00  0.00    +0.000 C 
ATOM     30  C   UNL     1     -27.256  12.339 -10.055  0.00  0.00    +0.000 C 
ATOM     31  C   UNL     1     -28.183  11.521 -12.280  0.00  0.00    +0.000 C 
ENDBRANCH  27  29
ENDBRANCH  19  27
ENDBRANCH  18  23
ENDBRANCH   1  18
TORSDOF 6
ENDMDL
MODEL 4
REMARK VINA RESULT:      -7.6     28.172     31.676
REMARK  Name = 
REMARK  6 active torsions:
REMARK  status: ('A' for Active; 'I' for Inactive)
REMARK    1  A    between atoms: C_2  and  O_5
REMARK    2  A    between atoms: O_5  and  C_6
REMARK    3  A    between atoms: C_10  and  O_11
REMARK    4  A    between atoms: O_11  and  C_12
REMARK    5  A    between atoms: C_18  and  C_19
REMARK    6  A    between atoms: C_20  and  C_21
REMARK                            x       y       z     vdW  Elec       q    Type
REMARK                         _______ _______ _______ _____ _____    ______ ____
ROOT
ATOM      1  C   UNL     1     -33.035  -6.118  -3.607  0.00  0.00    +0.000 A 
ATOM      2  C   UNL     1     -31.891  -6.895  -3.656  0.00  0.00    +0.000 A 
ATOM      3  C   UNL     1     -30.750  -6.607  -2.910  0.00  0.00    +0.000 A 
ATOM      4  O   UNL     1     -30.100  -7.729  -2.378  0.00  0.00    +0.000 OA
ATOM      5  C   UNL     1     -30.889  -5.545  -2.022  0.00  0.00    +0.000 A 
ATOM      6  C   UNL     1     -31.784  -4.533  -2.344  0.00  0.00    +0.000 A 
ATOM      7  C   UNL     1     -32.910  -4.842  -3.079  0.00  0.00    +0.000 A 
ENDROOT
BRANCH   7   8
ATOM      8  C   UNL     1     -33.744  -3.819  -3.722  0.00  0.00    +0.000 C 
ATOM      9  C   UNL     1     -33.554  -3.628  -5.026  0.00  0.00    +0.000 C 
BRANCH   9  10
ATOM     10  C   UNL     1     -34.626  -3.203  -5.924  0.00  0.00    +0.000 A 
ATOM     11  C   UNL     1     -35.417  -2.097  -5.648  0.00  0.00    +0.000 A 
ATOM     12  C   UNL     1     -36.554  -1.882  -6.400  0.00  0.00    +0.000 A 
ATOM     13  O   UNL     1     -37.282  -0.702  -6.341  0.00  0.00    +0.000 OA
ATOM     14  C   UNL     1     -36.985  -2.830  -7.309  0.00  0.00    +0.000 A 
ATOM     15  C   UNL     1     -36.283  -4.013  -7.504  0.00  0.00    +0.000 A 
ATOM     16  O   UNL     1     -36.862  -5.081  -8.155  0.00  0.00    +0.000 OA
ATOM     17  C   UNL     1     -35.009  -4.042  -6.963  0.00  0.00    +0.000 A 
ENDBRANCH   9  10
ENDBRANCH   7   8
BRANCH   1  18
ATOM     18  O   UNL     1     -34.313  -6.621  -3.886  0.00  0.00    +0.000 OA
BRANCH  18  23
ATOM     19  C   UNL     1     -36.171  -9.461  -7.296  0.00  0.00    +0.000 C 
ATOM     20  O   UNL     1     -37.294 -10.049  -7.221  0.00  0.00    +0.000 OA
ATOM     21  N   UNL     1     -35.550  -8.947  -6.111  0.00  0.00    +0.000 N 
ATOM     22  C   UNL     1     -35.155  -7.566  -5.826  0.00  0.00    +0.000 C 
ATOM     23  C   UNL     1     -34.131  -7.977  -4.605  0.00  0.00    +0.000 C 
ATOM     24  C   UNL     1     -35.392  -8.637  -3.772  0.00  0.00    +0.000 C 
ATOM     25  C   UNL     1     -35.757  -9.598  -4.849  0.00  0.00    +0.000 C 
ATOM     26  O   UNL     1     -36.014 -10.813  -4.695  0.00  0.00    +0.000 OA
BRANCH  19  27
ATOM     27  O   UNL     1     -35.394  -9.712  -8.433  0.00  0.00    +0.000 OA
BRANCH  27  29
ATOM     28  C   UNL     1     -35.710  -9.132  -9.682  0.00  0.00    +0.000 C 
ATOM     29  C   UNL     1     -35.859  -9.120  -9.638  0.00  0.00    +0.000 C 
ATOM     30  C   UNL     1     -35.765 -10.107 -10.793  0.00  0.00    +0.000 C 
ATOM     31  C   UNL     1     -35.305  -7.757  -9.932  0.00  0.00    +0.000 C 
ENDBRANCH  27  29
ENDBRANCH  19  27
ENDBRANCH  18  23
ENDBRANCH   1  18
TORSDOF 6
ENDMDL
MODEL 5
REMARK VINA RESULT:      -7.5     10.766     15.086
REMARK  Name = 
REMARK  6 active torsions:
REMARK  status: ('A' for Active; 'I' for Inactive)
REMARK    1  A    between atoms: C_2  and  O_5
REMARK    2  A    between atoms: O_5  and  C_6
REMARK    3  A    between atoms: C_10  and  O_11
REMARK    4  A    between atoms: O_11  and  C_12
REMARK    5  A    between atoms: C_18  and  C_19
REMARK    6  A    between atoms: C_20  and  C_21
REMARK                            x       y       z     vdW  Elec       q    Type
REMARK                         _______ _______ _______ _____ _____    ______ ____
ROOT
ATOM      1  C   UNL     1     -24.706   8.805  -3.855  0.00  0.00    +0.000 A 
ATOM      2  C   UNL     1     -25.885   8.633  -4.560  0.00  0.00    +0.000 A 
ATOM      3  C   UNL     1     -25.939   8.636  -5.952  0.00  0.00    +0.000 A 
ATOM      4  O   UNL     1     -26.820   7.696  -6.505  0.00  0.00    +0.000 OA
ATOM      5  C   UNL     1     -24.701   8.707  -6.582  0.00  0.00    +0.000 A 
ATOM      6  C   UNL     1     -23.667   9.361  -5.924  0.00  0.00    +0.000 A 
ATOM      7  C   UNL     1     -23.629   9.340  -4.545  0.00  0.00    +0.000 A 
ENDROOT
BRANCH   7   8
ATOM      8  C   UNL     1     -22.772  10.238  -3.761  0.00  0.00    +0.000 C 
ATOM      9  C   UNL     1     -22.881  11.540  -4.017  0.00  0.00    +0.000 C 
BRANCH   9  10
ATOM     10  C   UNL     1     -22.663  12.563  -2.996  0.00  0.00    +0.000 A 
ATOM     11  C   UNL     1     -22.680  13.917  -3.299  0.00  0.00    +0.000 A 
ATOM     12  C   UNL     1     -22.239  14.821  -2.355  0.00  0.00    +0.000 A 
ATOM     13  O   UNL     1     -22.417  16.191  -2.486  0.00  0.00    +0.000 OA
ATOM     14  C   UNL     1     -21.647  14.384  -1.185  0.00  0.00    +0.000 A 
ATOM     15  C   UNL     1     -21.494  13.028  -0.919  0.00  0.00    +0.000 A 
ATOM     16  O   UNL     1     -20.638  12.594   0.070  0.00  0.00    +0.000 OA
ATOM     17  C   UNL     1     -22.216  12.178  -1.738  0.00  0.00    +0.000 A 
ENDBRANCH   9  10
ENDBRANCH   7   8
BRANCH   1  18
ATOM     18  O   UNL     1     -24.507   8.300  -2.562  0.00  0.00    +0.000 OA
BRANCH  18  23
ATOM     19  C   UNL     1     -24.396   3.923  -0.569  0.00  0.00    +0.000 C 
ATOM     20  O   UNL     1     -23.881   3.650   0.559  0.00  0.00    +0.000 OA
ATOM     21  N   UNL     1     -24.064   5.150  -1.231  0.00  0.00    +0.000 N 
ATOM     22  C   UNL     1     -24.970   6.220  -1.652  0.00  0.00    +0.000 C 
ATOM     23  C   UNL     1     -23.895   6.888  -2.705  0.00  0.00    +0.000 C 
ATOM     24  C   UNL     1     -22.851   7.167  -1.460  0.00  0.00    +0.000 C 
ATOM     25  C   UNL     1     -22.767   5.738  -1.051  0.00  0.00    +0.000 C 
ATOM     26  O   UNL     1     -21.719   5.110  -0.782  0.00  0.00    +0.000 OA
BRANCH  19  27
ATOM     27  O   UNL     1     -24.913   2.853  -1.310  0.00  0.00    +0.000 OA
BRANCH  27  29
ATOM     28  C   UNL     1     -26.260   2.638  -0.942  0.00  0.00    +0.000 C 
ATOM     29  C   UNL     1     -26.269   2.521  -1.045  0.00  0.00    +0.000 C 
ATOM     30  C   UNL     1     -27.195   3.641  -1.498  0.00  0.00    +0.000 C 
ATOM     31  C   UNL     1     -26.539   2.005   0.338  0.00  0.00    +0.000 C 
ENDBRANCH  27  29
ENDBRANCH  19  27
ENDBRANCH  18  23
ENDBRANCH   1  18
TORSDOF 6
ENDMDL
MODEL 6
REMARK VINA RESULT:      -7.3     19.621     22.111
REMARK  Name = 
REMARK  6 active torsions:
REMARK  status: ('A' for Active; 'I' for Inactive)
REMARK    1  A    between atoms: C_2  and  O_5
REMARK    2  A    between atoms: O_5  and  C_6
REMARK    3  A    between atoms: C_10  and  O_11
REMARK    4  A    between atoms: O_11  and  C_12
REMARK    5  A    between atoms: C_18  and  C_19
REMARK    6  A    between atoms: C_20  and  C_21
REMARK                            x       y       z     vdW  Elec       q    Type
REMARK                         _______ _______ _______ _____ _____    ______ ____
ROOT
ATOM      1  C   UNL     1     -10.146  20.600 -22.846  0.00  0.00    +0.000 A 
ATOM      2  C   UNL     1     -10.768  20.786 -24.069  0.00  0.00    +0.000 A 
ATOM      3  C   UNL     1     -10.183  20.417 -25.277  0.00  0.00    +0.000 A 
ATOM      4  O   UNL     1     -11.069  19.863 -26.211  0.00  0.00    +0.000 OA
ATOM      5  C   UNL     1      -8.975  19.737 -25.154  0.00  0.00    +0.000 A 
ATOM      6  C   UNL     1      -8.178  20.010 -24.049  0.00  0.00    +0.000 A 
ATOM      7  C   UNL     1      -8.780  20.369 -22.861  0.00  0.00    +0.000 A 
ENDROOT
BRANCH   7   8
ATOM      8  C   UNL     1      -8.036  20.965 -21.743  0.00  0.00    +0.000 C 
ATOM      9  C   UNL     1      -7.740  20.158 -20.727  0.00  0.00    +0.000 C 
BRANCH   9  10
ATOM     10  C   UNL     1      -6.539  20.329 -19.911  0.00  0.00    +0.000 A 
ATOM     11  C   UNL     1      -5.399  20.946 -20.405  0.00  0.00    +0.000 A 
ATOM     12  C   UNL     1      -4.228  20.871 -19.679  0.00  0.00    +0.000 A 
ATOM     13  O   UNL     1      -3.106  21.629 -19.982  0.00  0.00    +0.000 OA
ATOM     14  C   UNL     1      -4.147  20.069 -18.556  0.00  0.00    +0.000 A 
ATOM     15  C   UNL     1      -5.240  19.331 -18.119  0.00  0.00    +0.000 A 
ATOM     16  O   UNL     1      -5.084  18.305 -17.212  0.00  0.00    +0.000 OA
ATOM     17  C   UNL     1      -6.454  19.673 -18.689  0.00  0.00    +0.000 A 
ENDBRANCH   9  10
ENDBRANCH   7   8
BRANCH   1  18
ATOM     18  O   UNL     1     -10.852  20.452 -21.644  0.00  0.00    +0.000 OA
BRANCH  18  23
ATOM     19  C   UNL     1     -14.678  18.051 -19.989  0.00  0.00    +0.000 C 
ATOM     20  O   UNL     1     -14.850  17.700 -18.780  0.00  0.00    +0.000 OA
ATOM     21  N   UNL     1     -13.374  18.427 -20.447  0.00  0.00    +0.000 N 
ATOM     22  C   UNL     1     -12.958  19.699 -21.040  0.00  0.00    +0.000 C 
ATOM     23  C   UNL     1     -11.578  19.089 -21.697  0.00  0.00    +0.000 C 
ATOM     24  C   UNL     1     -11.038  18.693 -20.190  0.00  0.00    +0.000 C 
ATOM     25  C   UNL     1     -12.205  17.827 -19.868  0.00  0.00    +0.000 C 
ATOM     26  O   UNL     1     -12.156  16.688 -19.352  0.00  0.00    +0.000 OA
BRANCH  19  27
ATOM     27  O   UNL     1     -15.650  17.652 -20.913  0.00  0.00    +0.000 OA
BRANCH  27  29
ATOM     28  C   UNL     1     -16.619  18.557 -21.401  0.00  0.00    +0.000 C 
ATOM     29  C   UNL     1     -16.526  18.676 -21.366  0.00  0.00    +0.000 C 
ATOM     30  C   UNL     1     -17.768  18.747 -20.489  0.00  0.00    +0.000 C 
ATOM     31  C   UNL     1     -16.798  18.675 -22.840  0.00  0.00    +0.000 C 
ENDBRANCH  27  29
ENDBRANCH  19  27
ENDBRANCH  18  23
ENDBRANCH   1  18
TORSDOF 6
ENDMDL
MODEL 7
REMARK VINA RESULT:      -7.2     12.665     16.873
REMARK  Name = 
REMARK  6 active torsions:
REMARK  status: ('A' for Active; 'I' for Inactive)
REMARK    1  A    between atoms: C_2  and  O_5
REMARK    2  A    between atoms: O_5  and  C_6
REMARK    3  A    between atoms: C_10  and  O_11
REMARK    4  A    between atoms: O_11  and  C_12
REMARK    5  A    between atoms: C_18  and  C_19
REMARK    6  A    between atoms: C_20  and  C_21
REMARK                            x       y       z     vdW  Elec       q    Type
REMARK                         _______ _______ _______ _____ _____    ______ ____
ROOT
ATOM      1  C   UNL     1     -28.318   6.102  -2.161  0.00  0.00    +0.000 A 
ATOM      2  C   UNL     1     -28.822   6.365  -0.899  0.00  0.00    +0.000 A 
ATOM      3  C   UNL     1     -30.103   6.867  -0.686  0.00  0.00    +0.000 A 
ATOM      4  O   UNL     1     -30.769   6.323   0.421  0.00  0.00    +0.000 OA
ATOM      5  C   UNL     1     -30.883   6.973  -1.834  0.00  0.00    +0.000 A 
ATOM      6  C   UNL     1     -30.241   7.194  -3.046  0.00  0.00    +0.000 A 
ATOM      7  C   UNL     1     -28.974   6.682  -3.236  0.00  0.00    +0.000 A 
ENDROOT
BRANCH   7   8
ATOM      8  C   UNL     1     -28.102   7.110  -4.338  0.00  0.00    +0.000 C 
ATOM      9  C   UNL     1     -27.316   8.158  -4.104  0.00  0.00    +0.000 C 
BRANCH   9  10
ATOM     10  C   UNL     1     -26.009   8.318  -4.739  0.00  0.00    +0.000 A 
ATOM     11  C   UNL     1     -24.971   8.997  -4.118  0.00  0.00    +0.000 A 
ATOM     12  C   UNL     1     -23.848   9.320  -4.851  0.00  0.00    +0.000 A 
ATOM     13  O   UNL     1     -22.683   9.801  -4.270  0.00  0.00    +0.000 OA
ATOM     14  C   UNL     1     -23.815   9.109  -6.217  0.00  0.00    +0.000 A 
ATOM     15  C   UNL     1     -24.900   8.555  -6.886  0.00  0.00    +0.000 A 
ATOM     16  O   UNL     1     -25.001   8.636  -8.258  0.00  0.00    +0.000 OA
ATOM     17  C   UNL     1     -25.862   7.976  -6.078  0.00  0.00    +0.000 A 
ENDBRANCH   9  10
ENDBRANCH   7   8
BRANCH   1  18
ATOM     18  O   UNL     1     -27.317   5.150  -2.402  0.00  0.00    +0.000 OA
BRANCH  18  23
ATOM     19  C   UNL     1     -22.949   5.661  -0.452  0.00  0.00    +0.000 C 
ATOM     20  O   UNL     1     -21.932   4.965  -0.756  0.00  0.00    +0.000 OA
ATOM     21  N   UNL     1     -24.261   5.205  -0.807  0.00  0.00    +0.000 N 
ATOM     22  C   UNL     1     -25.257   5.883  -1.639  0.00  0.00    +0.000 C 
ATOM     23  C   UNL     1     -26.517   4.977  -1.092  0.00  0.00    +0.000 C 
ATOM     24  C   UNL     1     -25.785   3.616  -1.668  0.00  0.00    +0.000 C 
ATOM     25  C   UNL     1     -24.543   3.799  -0.868  0.00  0.00    +0.000 C 
ATOM     26  O   UNL     1     -23.956   2.913  -0.207  0.00  0.00    +0.000 OA
BRANCH  19  27
ATOM     27  O   UNL     1     -22.796   6.604   0.571  0.00  0.00    +0.000 OA
BRANCH  27  29
ATOM     28  C   UNL     1     -22.778   7.916   0.047  0.00  0.00    +0.000 C 
ATOM     29  C   UNL     1     -22.665   7.954   0.146  0.00  0.00    +0.000 C 
ATOM     30  C   UNL     1     -23.915   8.750   0.494  0.00  0.00    +0.000 C 
ATOM     31  C   UNL     1     -22.177   8.135  -1.260  0.00  0.00    +0.000 C 
ENDBRANCH  27  29
ENDBRANCH  19  27
ENDBRANCH  18  23
ENDBRANCH   1  18
TORSDOF 6
ENDMDL
MODEL 8
REMARK VINA RESULT:      -7.1     27.916     30.967
REMARK  Name = 
REMARK  6 active torsions:
REMARK  status: ('A' for Active; 'I' for Inactive)
REMARK    1  A    between atoms: C_2  and  O_5
REMARK    2  A    between atoms: O_5  and  C_6
REMARK    3  A    between atoms: C_10  and  O_11
REMARK    4  A    between atoms: O_11  and  C_12
REMARK    5  A    between atoms: C_18  and  C_19
REMARK    6  A    between atoms: C_20  and  C_21
REMARK                            x       y       z     vdW  Elec       q    Type
REMARK                         _______ _______ _______ _____ _____    ______ ____
ROOT
ATOM      1  C   UNL     1     -36.216  -4.681  -5.978  0.00  0.00    +0.000 A 
ATOM      2  C   UNL     1     -37.201  -3.809  -5.547  0.00  0.00    +0.000 A 
ATOM      3  C   UNL     1     -37.006  -2.432  -5.463  0.00  0.00    +0.000 A 
ATOM      4  O   UNL     1     -38.108  -1.660  -5.855  0.00  0.00    +0.000 OA
ATOM      5  C   UNL     1     -35.784  -1.987  -5.958  0.00  0.00    +0.000 A 
ATOM      6  C   UNL     1     -34.697  -2.849  -5.894  0.00  0.00    +0.000 A 
ATOM      7  C   UNL     1     -34.913  -4.209  -5.985  0.00  0.00    +0.000 A 
ENDROOT
BRANCH   7   8
ATOM      8  C   UNL     1     -33.891  -5.201  -5.628  0.00  0.00    +0.000 C 
ATOM      9  C   UNL     1     -32.673  -5.009  -6.130  0.00  0.00    +0.000 C 
BRANCH   9  10
ATOM     10  C   UNL     1     -31.459  -5.429  -5.433  0.00  0.00    +0.000 A 
ATOM     11  C   UNL     1     -31.495  -6.322  -4.371  0.00  0.00    +0.000 A 
ATOM     12  C   UNL     1     -30.361  -6.500  -3.606  0.00  0.00    +0.000 A 
ATOM     13  O   UNL     1     -30.238  -7.517  -2.670  0.00  0.00    +0.000 OA
ATOM     14  C   UNL     1     -29.254  -5.693  -3.792  0.00  0.00    +0.000 A 
ATOM     15  C   UNL     1     -29.244  -4.697  -4.760  0.00  0.00    +0.000 A 
ATOM     16  O   UNL     1     -28.292  -3.700  -4.740  0.00  0.00    +0.000 OA
ATOM     17  C   UNL     1     -30.268  -4.761  -5.689  0.00  0.00    +0.000 A 
ENDBRANCH   9  10
ENDBRANCH   7   8
BRANCH   1  18
ATOM     18  O   UNL     1     -36.498  -5.921  -6.568  0.00  0.00    +0.000 OA
BRANCH  18  23
ATOM     19  C   UNL     1     -37.866  -6.542 -11.138  0.00  0.00    +0.000 C 
ATOM     20  O   UNL     1     -38.181  -7.656 -11.658  0.00  0.00    +0.000 OA
ATOM     21  N   UNL     1     -37.136  -6.506  -9.906  0.00  0.00    +0.000 N 
ATOM     22  C   UNL     1     -37.528  -5.878  -8.643  0.00  0.00    +0.000 C 
ATOM     23  C   UNL     1     -36.000  -5.863  -8.030  0.00  0.00    +0.000 C 
ATOM     24  C   UNL     1     -35.948  -7.508  -8.123  0.00  0.00    +0.000 C 
ATOM     25  C   UNL     1     -36.207  -7.553  -9.589  0.00  0.00    +0.000 C 
ATOM     26  O   UNL     1     -35.586  -8.248 -10.425  0.00  0.00    +0.000 OA
BRANCH  19  27
ATOM     27  O   UNL     1     -37.860  -5.423 -11.980  0.00  0.00    +0.000 OA
BRANCH  27  29
ATOM     28  C   UNL     1     -38.779  -4.365 -11.797  0.00  0.00    +0.000 C 
ATOM     29  C   UNL     1     -38.784  -4.396 -11.645  0.00  0.00    +0.000 C 
ATOM     30  C   UNL     1     -40.151  -4.685 -12.248  0.00  0.00    +0.000 C 
ATOM     31  C   UNL     1     -38.286  -2.998 -11.860  0.00  0.00    +0.000 C 
ENDBRANCH  27  29
ENDBRANCH  19  27
ENDBRANCH  18  23
ENDBRANCH   1  18
TORSDOF 6
ENDMDL
MODEL 9
REMARK VINA RESULT:      -7.1     12.785     17.163
REMARK  Name = 
REMARK  6 active torsions:
REMARK  status: ('A' for Active; 'I' for Inactive)
REMARK    1  A    between atoms: C_2  and  O_5
REMARK    2  A    between atoms: O_5  and  C_6
REMARK    3  A    between atoms: C_10  and  O_11
REMARK    4  A    between atoms: O_11  and  C_12
REMARK    5  A    between atoms: C_18  and  C_19
REMARK    6  A    between atoms: C_20  and  C_21
REMARK                            x       y       z     vdW  Elec       q    Type
REMARK                         _______ _______ _______ _____ _____    ______ ____
ROOT
ATOM      1  C   UNL     1     -24.234   8.241  -3.494  0.00  0.00    +0.000 A 
ATOM      2  C   UNL     1     -23.165   8.484  -2.650  0.00  0.00    +0.000 A 
ATOM      3  C   UNL     1     -22.376   9.628  -2.740  0.00  0.00    +0.000 A 
ATOM      4  O   UNL     1     -21.986  10.169  -1.507  0.00  0.00    +0.000 OA
ATOM      5  C   UNL     1     -22.817  10.566  -3.668  0.00  0.00    +0.000 A 
ATOM      6  C   UNL     1     -23.514  10.111  -4.780  0.00  0.00    +0.000 A 
ATOM      7  C   UNL     1     -24.293   8.979  -4.666  0.00  0.00    +0.000 A 
ENDROOT
BRANCH   7   8
ATOM      8  C   UNL     1     -24.814   8.253  -5.832  0.00  0.00    +0.000 C 
ATOM      9  C   UNL     1     -26.065   8.526  -6.194  0.00  0.00    +0.000 C 
BRANCH   9  10
ATOM     10  C   UNL     1     -26.516   8.452  -7.583  0.00  0.00    +0.000 A 
ATOM     11  C   UNL     1     -26.345   7.309  -8.349  0.00  0.00    +0.000 A 
ATOM     12  C   UNL     1     -26.573   7.373  -9.708  0.00  0.00    +0.000 A 
ATOM     13  O   UNL     1     -26.636   6.244 -10.514  0.00  0.00    +0.000 OA
ATOM     14  C   UNL     1     -26.818   8.585 -10.324  0.00  0.00    +0.000 A 
ATOM     15  C   UNL     1     -26.858   9.767  -9.595  0.00  0.00    +0.000 A 
ATOM     16  O   UNL     1     -26.783  10.991 -10.225  0.00  0.00    +0.000 OA
ATOM     17  C   UNL     1     -26.929   9.615  -8.221  0.00  0.00    +0.000 A 
ENDBRANCH   9  10
ENDBRANCH   7   8
BRANCH   1  18
ATOM     18  O   UNL     1     -25.326   7.439  -3.134  0.00  0.00    +0.000 OA
BRANCH  18  23
ATOM     19  C   UNL     1     -27.337   4.985   0.482  0.00  0.00    +0.000 C 
ATOM     20  O   UNL     1     -28.415   5.309   1.070  0.00  0.00    +0.000 OA
ATOM     21  N   UNL     1     -26.637   5.950  -0.314  0.00  0.00    +0.000 N 
ATOM     22  C   UNL     1     -26.292   5.866  -1.735  0.00  0.00    +0.000 C 
ATOM     23  C   UNL     1     -25.139   7.038  -1.654  0.00  0.00    +0.000 C 
ATOM     24  C   UNL     1     -26.281   8.125  -1.170  0.00  0.00    +0.000 C 
ATOM     25  C   UNL     1     -26.692   7.342   0.028  0.00  0.00    +0.000 C 
ATOM     26  O   UNL     1     -26.868   7.799   1.180  0.00  0.00    +0.000 OA
BRANCH  19  27
ATOM     27  O   UNL     1     -26.656   3.864   0.970  0.00  0.00    +0.000 OA
BRANCH  27  29
ATOM     28  C   UNL     1     -26.826   2.588   0.388  0.00  0.00    +0.000 C 
ATOM     29  C   UNL     1     -26.964   2.632   0.331  0.00  0.00    +0.000 C 
ATOM     30  C   UNL     1     -27.189   1.534   1.362  0.00  0.00    +0.000 C 
ATOM     31  C   UNL     1     -26.051   2.255  -0.797  0.00  0.00    +0.000 C 
ENDBRANCH  27  29
ENDBRANCH  19  27
ENDBRANCH  18  23
ENDBRANCH   1  18
TORSDOF 6
ENDMDL
MODEL 10
REMARK VINA RESULT:      -6.9     16.214     21.294
REMARK  Name = 
REMARK  6 active torsions:
REMARK  status: ('A' for Active; 'I' for Inactive)
REMARK    1  A    between atoms: C_2  and  O_5
REMARK    2  A    between atoms: O_5  and  C_6
REMARK    3  A    between atoms: C_10  and  O_11
REMARK    4  A    between atoms: O_11  and  C_12
REMARK    5  A    between atoms: C_18  and  C_19
REMARK    6  A    between atoms: C_20  and  C_21
REMARK                            x       y       z     vdW  Elec       q    Type
REMARK                         _______ _______ _______ _____ _____    ______ ____
ROOT
ATOM      1  C   UNL     1     -32.426   8.822 -11.393  0.00  0.00    +0.000 A 
ATOM      2  C   UNL     1     -33.108   7.893 -10.626  0.00  0.00    +0.000 A 
ATOM      3  C   UNL     1     -34.497   7.792 -10.621  0.00  0.00    +0.000 A 
ATOM      4  O   UNL     1     -34.988   6.480 -10.573  0.00  0.00    +0.000 OA
ATOM      5  C   UNL     1     -35.143   8.616 -11.537  0.00  0.00    +0.000 A 
ATOM      6  C   UNL     1     -34.534   9.816 -11.884  0.00  0.00    +0.000 A 
ATOM      7  C   UNL     1     -33.156   9.892 -11.887  0.00  0.00    +0.000 A 
ENDROOT
BRANCH   7   8
ATOM      8  C   UNL     1     -32.432  11.168 -11.937  0.00  0.00    +0.000 C 
ATOM      9  C   UNL     1     -32.177  11.755 -10.770  0.00  0.00    +0.000 C 
BRANCH   9  10
ATOM     10  C   UNL     1     -30.995  12.587 -10.550  0.00  0.00    +0.000 A 
ATOM     11  C   UNL     1     -31.011  13.956 -10.775  0.00  0.00    +0.000 A 
ATOM     12  C   UNL     1     -29.817  14.649 -10.778  0.00  0.00    +0.000 A 
ATOM     13  O   UNL     1     -29.753  16.035 -10.779  0.00  0.00    +0.000 OA
ATOM     14  C   UNL     1     -28.613  13.974 -10.712  0.00  0.00    +0.000 A 
ATOM     15  C   UNL     1     -28.569  12.588 -10.626  0.00  0.00    +0.000 A 
ATOM     16  O   UNL     1     -27.401  11.900 -10.878  0.00  0.00    +0.000 OA
ATOM     17  C   UNL     1     -29.770  11.973 -10.320  0.00  0.00    +0.000 A 
ENDBRANCH   9  10
ENDBRANCH   7   8
BRANCH   1  18
ATOM     18  O   UNL     1     -31.110   8.630 -11.835  0.00  0.00    +0.000 OA
BRANCH  18  23
ATOM     19  C   UNL     1     -26.845   7.090 -10.228  0.00  0.00    +0.000 C 
ATOM     20  O   UNL     1     -25.992   6.454 -10.922  0.00  0.00    +0.000 OA
ATOM     21  N   UNL     1     -28.205   7.182 -10.671  0.00  0.00    +0.000 N 
ATOM     22  C   UNL     1     -28.980   8.391 -10.954  0.00  0.00    +0.000 C 
ATOM     23  C   UNL     1     -30.437   7.630 -10.868  0.00  0.00    +0.000 C 
ATOM     24  C   UNL     1     -29.996   6.650 -12.120  0.00  0.00    +0.000 C 
ATOM     25  C   UNL     1     -28.788   6.115 -11.433  0.00  0.00    +0.000 C 
ATOM     26  O   UNL     1     -28.447   4.912 -11.374  0.00  0.00    +0.000 OA
BRANCH  19  27
ATOM     27  O   UNL     1     -26.539   7.301  -8.878  0.00  0.00    +0.000 OA
BRANCH  27  29
ATOM     28  C   UNL     1     -25.884   8.477  -8.449  0.00  0.00    +0.000 C 
ATOM     29  C   UNL     1     -25.820   8.493  -8.590  0.00  0.00    +0.000 C 
ATOM     30  C   UNL     1     -24.715   8.222  -7.579  0.00  0.00    +0.000 C 
ATOM     31  C   UNL     1     -26.669   9.691  -8.286  0.00  0.00    +0.000 C 
ENDBRANCH  27  29
ENDBRANCH  19  27
ENDBRANCH  18  23
ENDBRANCH   1  18
TORSDOF 6
ENDMDL
