
 OpenBabel05042123343D

 24 25  0  0  0  0  0  0  0  0999 V2000
   -6.2210    1.7951   -0.7990 C   0  0  0  0  0  0  0  0  0  0  0  0
   -5.8457    1.0039    0.3163 O   0  0  0  0  0  0  0  0  0  0  0  0
   -4.5214    0.6658    0.5895 C   0  0  0  0  0  0  0  0  0  0  0  0
   -3.5617    1.6428    0.8045 C   0  0  0  0  0  0  0  0  0  0  0  0
   -2.2716    1.4988    0.3109 C   0  0  0  0  0  0  0  0  0  0  0  0
   -1.8835    0.3484   -0.3633 C   0  0  0  0  0  0  0  0  0  0  0  0
   -1.0245    0.4119   -1.5533 C   0  0  0  0  0  0  0  0  0  0  0  0
    0.0584   -0.3645   -1.4963 C   0  0  0  0  0  0  0  0  0  0  0  0
    0.9286   -0.1075   -0.3398 C   0  0  0  0  0  0  0  0  0  0  0  0
    1.5833   -1.2015    0.2080 C   0  0  0  0  0  0  0  0  0  0  0  0
    2.9045   -1.1394    0.6310 C   0  0  0  0  0  0  0  0  0  0  0  0
    3.6102   -2.2372    1.0797 O   0  0  0  0  0  0  0  0  0  0  0  0
    3.1155   -3.5477    1.1449 C   0  0  0  0  0  0  0  0  0  0  0  0
    3.6328    0.0316    0.4611 C   0  0  0  0  0  0  0  0  0  0  0  0
    4.9776    0.0188    0.0825 O   0  0  0  0  0  0  0  0  0  0  0  0
    5.5716   -1.0486   -0.6228 C   0  0  0  0  0  0  0  0  0  0  0  0
    2.8922    1.1866    0.2455 C   0  0  0  0  0  0  0  0  0  0  0  0
    3.5915    2.3822    0.0918 O   0  0  0  0  0  0  0  0  0  0  0  0
    4.9957    2.4414    0.1403 C   0  0  0  0  0  0  0  0  0  0  0  0
    1.5634    1.1154   -0.1562 C   0  0  0  0  0  0  0  0  0  0  0  0
   -2.7503   -0.7303   -0.2470 C   0  0  0  0  0  0  0  0  0  0  0  0
   -2.3167   -1.9673   -0.6950 O   0  0  0  0  0  0  0  0  0  0  0  0
   -4.0430   -0.5888    0.2430 C   0  0  0  0  0  0  0  0  0  0  0  0
   -4.9861   -1.6100    0.1400 O   0  0  0  0  0  0  0  0  0  0  0  0
  1  2  1  0  0  0  0
  2  3  1  0  0  0  0
  3  4  2  0  0  0  0
  4  5  1  0  0  0  0
  5  6  2  0  0  0  0
  6  7  1  0  0  0  0
  6 21  1  0  0  0  0
  7  8  2  0  0  0  0
  8  9  1  0  0  0  0
  9 10  2  0  0  0  0
 10 11  1  0  0  0  0
 11 12  1  0  0  0  0
 11 14  2  0  0  0  0
 12 13  1  0  0  0  0
 14 15  1  0  0  0  0
 14 17  1  0  0  0  0
 15 16  1  0  0  0  0
 17 18  1  0  0  0  0
 17 20  2  0  0  0  0
 18 19  1  0  0  0  0
 20  9  1  0  0  0  0
 21 22  1  0  0  0  0
 21 23  2  0  0  0  0
 23 24  1  0  0  0  0
 23  3  1  0  0  0  0
M  END
>  <zinc_id>
ZINC000000024632

>  <smiles>
COc1ccc(/C=C\c2cc(OC)c(OC)c(OC)c2)c(O)c1O

$$$$
