
 OpenBabel05042123343D

 29 31  0  0  0  0  0  0  0  0999 V2000
   -3.0387    2.5012   -1.4003 O   0  0  0  0  0  0  0  0  0  0  0  0
   -3.2026    2.3098   -1.4535 C   0  0  0  0  0  0  0  0  0  0  0  0
   -4.0829    1.0006   -0.9047 C   0  0  1  0  0  0  0  0  0  0  0  0
   -2.8501    0.4422   -0.1651 O   0  0  0  0  0  0  0  0  0  0  0  0
   -3.6538   -0.7357   -0.7589 C   0  0  1  0  0  0  0  0  0  0  0  0
   -2.7466   -1.8671   -0.1309 O   0  0  0  0  0  0  0  0  0  0  0  0
   -1.4440   -1.6673    0.0363 C   0  0  0  0  0  0  0  0  0  0  0  0
   -0.9672   -2.5636    0.9970 C   0  0  0  0  0  0  0  0  0  0  0  0
    0.3676   -2.6368    1.3422 C   0  0  0  0  0  0  0  0  0  0  0  0
    0.8289   -3.0225    2.5862 O   0  0  0  0  0  0  0  0  0  0  0  0
    1.1910   -2.3357    0.2644 C   0  0  0  0  0  0  0  0  0  0  0  0
    0.8469   -1.2345   -0.5186 C   0  0  0  0  0  0  0  0  0  0  0  0
    1.8569   -0.2346   -0.9188 C   0  0  0  0  0  0  0  0  0  0  0  0
    3.1137   -0.5416   -0.7985 C   0  0  0  0  0  0  0  0  0  0  0  0
    4.1665    0.2080   -0.1570 C   0  0  0  0  0  0  0  0  0  0  0  0
    3.9975    0.9633    0.9997 C   0  0  0  0  0  0  0  0  0  0  0  0
    4.8991    1.9968    1.2304 C   0  0  0  0  0  0  0  0  0  0  0  0
    5.9710    2.1585    0.3740 C   0  0  0  0  0  0  0  0  0  0  0  0
    6.4155    3.4121   -0.0625 O   0  0  0  0  0  0  0  0  0  0  0  0
    6.3749    0.9903   -0.2629 C   0  0  0  0  0  0  0  0  0  0  0  0
    5.4882   -0.0525   -0.4945 C   0  0  0  0  0  0  0  0  0  0  0  0
    5.8536   -1.2599   -1.0456 O   0  0  0  0  0  0  0  0  0  0  0  0
   -0.5138   -0.9899   -0.6948 C   0  0  0  0  0  0  0  0  0  0  0  0
   -4.8100   -0.9122    0.5546 C   0  0  2  0  0  0  0  0  0  0  0  0
   -5.9755   -0.3019   -0.2273 O   0  0  0  0  0  0  0  0  0  0  0  0
   -4.5754    0.4434    1.6025 C   0  0  1  0  0  0  0  0  0  0  0  0
   -3.0637    0.2603    1.7922 O   0  0  0  0  0  0  0  0  0  0  0  0
   -4.4729    1.8221    0.5546 C   0  0  2  0  0  0  0  0  0  0  0  0
   -5.9741    1.8474    0.2992 O   0  0  0  0  0  0  0  0  0  0  0  0
  1  2  1  0  0  0  0
  3  2  1  6  0  0  0
  3  4  1  0  0  0  0
  4  5  1  0  0  0  0
  5  6  1  1  0  0  0
  5 24  1  0  0  0  0
  6  7  1  0  0  0  0
  7  8  2  0  0  0  0
  8  9  1  0  0  0  0
  9 10  1  0  0  0  0
  9 11  2  0  0  0  0
 11 12  1  0  0  0  0
 12 13  1  0  0  0  0
 12 23  2  0  0  0  0
 13 14  2  0  0  0  0
 14 15  1  0  0  0  0
 15 16  2  0  0  0  0
 16 17  1  0  0  0  0
 17 18  2  0  0  0  0
 18 19  1  0  0  0  0
 18 20  1  0  0  0  0
 20 21  2  0  0  0  0
 21 22  1  0  0  0  0
 21 15  1  0  0  0  0
 23  7  1  0  0  0  0
 24 25  1  6  0  0  0
 24 26  1  0  0  0  0
 26 27  1  6  0  0  0
 26 28  1  0  0  0  0
 28 29  1  6  0  0  0
 28  3  1  0  0  0  0
M  END
>  <zinc_id>
ZINC000006525240

>  <smiles>
OC[C@H]1O[C@@H](Oc2cc(O)cc(/C=C/c3ccc(O)cc3O)c2)[C@H](O)[C@@H](O)[C@@H]1O

$$$$
