
 OpenBabel05042123343D

 26 29  0  0  0  0  0  0  0  0999 V2000
    1.9058    3.1285   -1.5583 C   0  0  0  0  0  0  0  0  0  0  0  0
    1.4374    1.9915   -0.8583 O   0  0  0  0  0  0  0  0  0  0  0  0
    2.3757    1.0010   -0.5533 C   0  0  0  0  0  0  0  0  0  0  0  0
    3.6837    1.3114   -0.2001 C   0  0  0  0  0  0  0  0  0  0  0  0
    4.5965    0.2742   -0.0864 C   0  0  0  0  0  0  0  0  0  0  0  0
    4.2575   -0.9927   -0.5469 C   0  0  0  0  0  0  0  0  0  0  0  0
    2.9053   -1.2814   -0.6580 C   0  0  0  0  0  0  0  0  0  0  0  0
    1.9718   -0.3081   -0.3191 C   0  0  0  0  0  0  0  0  0  0  0  0
    0.5725   -0.7083   -0.5143 C   0  0  0  0  0  0  0  0  0  0  0  0
   -0.3114   -0.3740    0.4264 C   0  0  0  0  0  0  0  0  0  0  0  0
   -0.0591    0.5603    1.5227 C   0  0  0  0  0  0  0  0  0  0  0  0
    1.0136    0.5806    2.1989 O   0  0  0  0  0  0  0  0  0  0  0  0
   -1.3426    1.0797    1.8798 N   0  0  0  0  0  0  0  0  0  0  0  0
   -2.3285    0.6360    0.9488 C   0  0  0  0  0  0  0  0  0  0  0  0
   -3.6501    0.9781    0.6876 C   0  0  0  0  0  0  0  0  0  0  0  0
   -4.3596    0.1310   -0.1546 C   0  0  0  0  0  0  0  0  0  0  0  0
   -5.5362    0.5056   -0.7832 O   0  0  0  0  0  0  0  0  0  0  0  0
   -6.0684    1.8026   -0.7369 C   0  0  0  0  0  0  0  0  0  0  0  0
   -3.9288   -1.1788   -0.3270 C   0  0  0  0  0  0  0  0  0  0  0  0
   -4.8620   -2.2165   -0.4156 O   0  0  0  0  0  0  0  0  0  0  0  0
   -5.7341   -2.5331    0.6665 C   0  0  0  0  0  0  0  0  0  0  0  0
   -2.5603   -1.4235   -0.3133 C   0  0  0  0  0  0  0  0  0  0  0  0
   -1.7734   -0.4851    0.3431 C   0  0  0  0  0  0  0  0  0  0  0  0
    5.4345   -1.6208   -0.9322 O   0  0  0  0  0  0  0  0  0  0  0  0
    6.4598   -1.0153   -0.1642 C   0  0  0  0  0  0  0  0  0  0  0  0
    5.9003    0.1572    0.4022 O   0  0  0  0  0  0  0  0  0  0  0  0
  1  2  1  0  0  0  0
  2  3  1  0  0  0  0
  3  4  2  0  0  0  0
  4  5  1  0  0  0  0
  5  6  2  0  0  0  0
  6  7  1  0  0  0  0
  6 24  1  0  0  0  0
  7  8  2  0  0  0  0
  8  9  1  0  0  0  0
  8  3  1  0  0  0  0
  9 10  2  0  0  0  0
 10 11  1  0  0  0  0
 11 12  2  0  0  0  0
 11 13  1  0  0  0  0
 13 14  1  0  0  0  0
 14 15  2  0  0  0  0
 15 16  1  0  0  0  0
 16 17  1  0  0  0  0
 16 19  2  0  0  0  0
 17 18  1  0  0  0  0
 19 20  1  0  0  0  0
 19 22  1  0  0  0  0
 20 21  1  0  0  0  0
 22 23  2  0  0  0  0
 23 10  1  0  0  0  0
 23 14  1  0  0  0  0
 24 25  1  0  0  0  0
 25 26  1  0  0  0  0
 26  5  1  0  0  0  0
M  END
>  <zinc_id>
ZINC000015109852

>  <smiles>
COc1cc2c(cc1/C=C1\C(=O)Nc3cc(OC)c(OC)cc31)OCO2

$$$$
