
 OpenBabel05042123343D

 26 28  0  0  0  0  0  0  0  0999 V2000
    1.0077   -2.6106   -2.8467 C   0  0  0  0  0  0  0  0  0  0  0  0
    1.1667   -1.2026   -2.7165 O   0  0  0  0  0  0  0  0  0  0  0  0
    1.6892   -0.7482   -1.5127 C   0  0  0  0  0  0  0  0  0  0  0  0
    2.9595   -1.1038   -1.0757 C   0  0  0  0  0  0  0  0  0  0  0  0
    3.5552   -0.4597    0.0022 C   0  0  0  0  0  0  0  0  0  0  0  0
    4.7022   -1.0286    0.5482 O   0  0  0  0  0  0  0  0  0  0  0  0
    4.7360   -2.4044    0.8306 C   0  0  0  0  0  0  0  0  0  0  0  0
    2.7695    0.3613    0.8029 C   0  0  0  0  0  0  0  0  0  0  0  0
    3.3559    1.0044    1.9397 N   0  3  0  0  0  0  0  0  0  0  0  0
    4.5741    0.9273    2.1214 O   0  0  0  0  0  0  0  0  0  0  0  0
    2.7168    2.1300    2.4043 O   0  5  0  0  0  0  0  0  0  0  0  0
    1.4546    0.5181    0.4479 C   0  0  0  0  0  0  0  0  0  0  0  0
    0.9551    0.1984   -0.8087 C   0  0  0  0  0  0  0  0  0  0  0  0
    0.1023    1.1267   -1.5640 C   0  0  0  0  0  0  0  0  0  0  0  0
   -1.0173    1.6214   -1.0355 C   0  0  0  0  0  0  0  0  0  0  0  0
   -1.4389    2.9799   -1.2354 C   0  0  0  0  0  0  0  0  0  0  0  0
   -1.6742    4.1031   -1.0192 N   0  0  0  0  0  0  0  0  0  0  0  0
   -1.7966    0.6603   -0.2450 C   0  0  0  0  0  0  0  0  0  0  0  0
   -1.9357    0.8765    1.1087 C   0  0  0  0  0  0  0  0  0  0  0  0
   -2.7420    0.0198    1.8144 C   0  0  0  0  0  0  0  0  0  0  0  0
   -3.7064   -0.7578    1.2067 C   0  0  0  0  0  0  0  0  0  0  0  0
   -3.7282   -0.8103   -0.1740 C   0  0  0  0  0  0  0  0  0  0  0  0
   -2.7405   -0.1368   -0.8818 C   0  0  0  0  0  0  0  0  0  0  0  0
   -4.6345   -1.8217   -0.4740 O   0  0  0  0  0  0  0  0  0  0  0  0
   -5.4691   -2.0821    0.6513 C   0  0  0  0  0  0  0  0  0  0  0  0
   -4.8614   -1.3607    1.7108 O   0  0  0  0  0  0  0  0  0  0  0  0
  1  2  1  0  0  0  0
  2  3  1  0  0  0  0
  3  4  2  0  0  0  0
  4  5  1  0  0  0  0
  5  6  1  0  0  0  0
  5  8  2  0  0  0  0
  6  7  1  0  0  0  0
  8  9  1  0  0  0  0
  8 12  1  0  0  0  0
  9 10  2  0  0  0  0
  9 11  1  0  0  0  0
 12 13  2  0  0  0  0
 13 14  1  0  0  0  0
 13  3  1  0  0  0  0
 14 15  2  0  0  0  0
 15 16  1  0  0  0  0
 15 18  1  0  0  0  0
 16 17  3  0  0  0  0
 18 19  2  0  0  0  0
 19 20  1  0  0  0  0
 20 21  2  0  0  0  0
 21 22  1  0  0  0  0
 22 23  2  0  0  0  0
 22 24  1  0  0  0  0
 23 18  1  0  0  0  0
 24 25  1  0  0  0  0
 25 26  1  0  0  0  0
 26 21  1  0  0  0  0
M  CHG  2   9   1  11  -1
M  END
>  <zinc_id>
ZINC000016362105

>  <smiles>
COc1cc(OC)c([N+](=O)[O-])cc1/C=C(/C#N)c1ccc2c(c1)OCO2

$$$$
