
 OpenBabel05042123343D

 26 28  0  0  0  0  0  0  0  0999 V2000
   -5.5690    2.2073    0.2701 C   0  0  0  0  0  0  0  0  0  0  0  0
   -5.8455    0.8116    0.1754 O   0  0  0  0  0  0  0  0  0  0  0  0
   -4.7428    0.0033   -0.1163 C   0  0  0  0  0  0  0  0  0  0  0  0
   -4.1371    0.0010   -1.3671 C   0  0  0  0  0  0  0  0  0  0  0  0
   -2.7842   -0.3132   -1.4247 C   0  0  0  0  0  0  0  0  0  0  0  0
   -2.1238   -0.6641   -0.2523 C   0  0  0  0  0  0  0  0  0  0  0  0
   -0.6703   -0.8688   -0.2113 C   0  0  0  0  0  0  0  0  0  0  0  0
    0.0642    0.2348   -0.3593 C   0  0  0  0  0  0  0  0  0  0  0  0
    1.5220    0.1213   -0.4966 C   0  0  0  0  0  0  0  0  0  0  0  0
    2.1942   -1.0698   -0.2514 C   0  0  0  0  0  0  0  0  0  0  0  0
    3.5381   -1.0116    0.0990 C   0  0  0  0  0  0  0  0  0  0  0  0
    4.3229   -2.1625    0.0723 O   0  0  0  0  0  0  0  0  0  0  0  0
    3.8719   -3.3899    0.5996 C   0  0  0  0  0  0  0  0  0  0  0  0
    4.2116    0.1901    0.2135 C   0  0  0  0  0  0  0  0  0  0  0  0
    5.5884    0.2077    0.3712 O   0  0  0  0  0  0  0  0  0  0  0  0
    6.3380    1.3909    0.1850 C   0  0  0  0  0  0  0  0  0  0  0  0
    3.5135    1.3715    0.1155 C   0  0  0  0  0  0  0  0  0  0  0  0
    2.2226    1.3144   -0.3744 C   0  0  0  0  0  0  0  0  0  0  0  0
    1.5875    2.6188   -0.7125 C   0  0  0  0  0  0  0  0  0  0  0  0
    0.2277    2.6693   -0.3686 O   0  0  0  0  0  0  0  0  0  0  0  0
   -0.5549    1.5452   -0.1195 C   0  0  0  0  0  0  0  0  0  0  0  0
   -1.5595    1.5948    0.6536 O   0  0  0  0  0  0  0  0  0  0  0  0
   -2.8979   -1.2892    0.7125 C   0  0  0  0  0  0  0  0  0  0  0  0
   -2.4395   -2.3723    1.4625 O   0  0  0  0  0  0  0  0  0  0  0  0
   -1.6487   -2.2350    2.6167 C   0  0  0  0  0  0  0  0  0  0  0  0
   -4.2293   -0.9053    0.7974 C   0  0  0  0  0  0  0  0  0  0  0  0
  1  2  1  0  0  0  0
  2  3  1  0  0  0  0
  3  4  2  0  0  0  0
  4  5  1  0  0  0  0
  5  6  2  0  0  0  0
  6  7  1  0  0  0  0
  6 23  1  0  0  0  0
  7  8  2  0  0  0  0
  8  9  1  0  0  0  0
  9 10  2  0  0  0  0
 10 11  1  0  0  0  0
 11 12  1  0  0  0  0
 11 14  2  0  0  0  0
 12 13  1  0  0  0  0
 14 15  1  0  0  0  0
 14 17  1  0  0  0  0
 15 16  1  0  0  0  0
 17 18  2  0  0  0  0
 18 19  1  0  0  0  0
 18  9  1  0  0  0  0
 19 20  1  0  0  0  0
 20 21  1  0  0  0  0
 21 22  2  0  0  0  0
 21  8  1  0  0  0  0
 23 24  1  0  0  0  0
 23 26  2  0  0  0  0
 24 25  1  0  0  0  0
 26  3  1  0  0  0  0
M  END
>  <zinc_id>
ZINC000018164793

>  <smiles>
COc1ccc(/C=C2\C(=O)OCc3cc(OC)c(OC)cc32)c(OC)c1

$$$$
