
 OpenBabel05042123343D

 31 35  0  0  0  0  0  0  0  0999 V2000
   -5.8326    2.8174    0.6210 C   0  0  0  0  0  0  0  0  0  0  0  0
   -5.4673    2.3287    0.6062 O   0  0  0  0  0  0  0  0  0  0  0  0
   -4.1716    1.8158    0.5392 C   0  0  0  0  0  0  0  0  0  0  0  0
   -3.1368    2.7367    0.5746 C   0  0  0  0  0  0  0  0  0  0  0  0
   -1.8914    2.2980    0.2153 C   0  0  0  0  0  0  0  0  0  0  0  0
   -1.6606    0.9303    0.1240 C   0  0  0  0  0  0  0  0  0  0  0  0
   -2.6884    0.0147    0.0433 C   0  0  0  0  0  0  0  0  0  0  0  0
   -3.9663    0.4836    0.2442 C   0  0  0  0  0  0  0  0  0  0  0  0
   -5.0078   -0.4094    0.1116 O   0  0  0  0  0  0  0  0  0  0  0  0
   -5.2682   -1.3318    1.1644 C   0  0  0  0  0  0  0  0  0  0  0  0
   -2.0754   -1.2933   -0.0849 C   0  0  0  0  0  0  0  0  0  0  0  0
   -2.7088   -2.3003   -0.4485 O   0  0  0  0  0  0  0  0  0  0  0  0
   -0.6842   -1.1110   -0.2969 N   0  0  0  0  0  0  0  0  0  0  0  0
   -0.4105    0.1744    0.2860 C   0  0  0  0  0  0  0  0  0  0  0  0
    0.7472    0.7171    0.6711 C   0  0  0  0  0  0  0  0  0  0  0  0
    2.0866    0.2165    0.3530 C   0  0  0  0  0  0  0  0  0  0  0  0
    2.3685   -1.0404   -0.1673 C   0  0  0  0  0  0  0  0  0  0  0  0
    3.7024   -1.2652   -0.4618 C   0  0  0  0  0  0  0  0  0  0  0  0
    4.6867   -0.3477   -0.1751 C   0  0  0  0  0  0  0  0  0  0  0  0
    4.3275    0.9452    0.1815 C   0  0  0  0  0  0  0  0  0  0  0  0
    2.9937    1.2495    0.3645 C   0  0  0  0  0  0  0  0  0  0  0  0
    2.6069    2.5861    0.2201 O   0  0  0  0  0  0  0  0  0  0  0  0
    2.2341    3.3695    1.3160 C   0  0  0  0  0  0  0  0  0  0  0  0
    5.4355    1.6704    0.5591 O   0  0  0  0  0  0  0  0  0  0  0  0
    6.5873    0.9029    0.2301 C   0  0  0  0  0  0  0  0  0  0  0  0
    6.0700   -0.2817   -0.3672 O   0  0  0  0  0  0  0  0  0  0  0  0
    1.4224   -1.8849   -0.9558 C   0  0  0  0  0  0  0  0  0  0  0  0
    0.2653   -2.3150    0.1775 C   0  0  2  0  0  0  0  0  0  0  0  0
   -0.4624   -3.3587   -0.7987 N   0  0  0  0  0  0  0  0  0  0  0  0
   -0.6401   -4.4198    0.2043 C   0  0  0  0  0  0  0  0  0  0  0  0
    0.5385   -3.8975   -1.6633 C   0  0  0  0  0  0  0  0  0  0  0  0
  1  2  1  0  0  0  0
  2  3  1  0  0  0  0
  3  4  2  0  0  0  0
  4  5  1  0  0  0  0
  5  6  2  0  0  0  0
  6  7  1  0  0  0  0
  7  8  2  0  0  0  0
  7 11  1  0  0  0  0
  8  9  1  0  0  0  0
  8  3  1  0  0  0  0
  9 10  1  0  0  0  0
 11 12  2  0  0  0  0
 11 13  1  0  0  0  0
 13 14  1  0  0  0  0
 14 15  2  0  0  0  0
 14  6  1  0  0  0  0
 15 16  1  0  0  0  0
 16 17  2  0  0  0  0
 17 18  1  0  0  0  0
 17 27  1  0  0  0  0
 18 19  2  0  0  0  0
 19 20  1  0  0  0  0
 20 21  2  0  0  0  0
 20 24  1  0  0  0  0
 21 22  1  0  0  0  0
 21 16  1  0  0  0  0
 22 23  1  0  0  0  0
 24 25  1  0  0  0  0
 25 26  1  0  0  0  0
 26 19  1  0  0  0  0
 27 28  1  0  0  0  0
 28 29  1  6  0  0  0
 28 13  1  0  0  0  0
 29 30  1  0  0  0  0
 29 31  1  0  0  0  0
M  END
>  <zinc_id>
ZINC000031852390

>  <smiles>
COc1ccc2c(c1OC)C(=O)N1C2=Cc2c(cc3c(c2OC)OCO3)C[C@@H]1N(C)C

$$$$
