
 OpenBabel05042123343D

 26 28  0  0  0  0  0  0  0  0999 V2000
    4.7682   -2.7275    2.7021 C   0  0  0  0  0  0  0  0  0  0  0  0
    4.5267   -1.6108    1.8865 O   0  0  0  0  0  0  0  0  0  0  0  0
    3.2979   -1.3574    1.2686 C   0  0  0  0  0  0  0  0  0  0  0  0
    2.2468   -0.7484    1.9424 C   0  0  0  0  0  0  0  0  0  0  0  0
    1.5291    0.2176    1.2622 C   0  0  0  0  0  0  0  0  0  0  0  0
    1.3703    0.1671   -0.1188 C   0  0  0  0  0  0  0  0  0  0  0  0
    1.0323    1.4630   -0.7259 C   0  0  0  0  0  0  0  0  0  0  0  0
   -0.2022    1.9124   -0.6914 C   0  0  0  0  0  0  0  0  0  0  0  0
   -1.2909    0.9296   -0.7157 C   0  0  0  0  0  0  0  0  0  0  0  0
   -0.9669   -0.4173   -0.7785 C   0  0  0  0  0  0  0  0  0  0  0  0
   -2.0234   -1.2932   -0.5608 C   0  0  0  0  0  0  0  0  0  0  0  0
   -1.9784   -2.6258   -0.9062 O   0  0  0  0  0  0  0  0  0  0  0  0
   -1.9499   -3.5756    0.1347 C   0  0  0  0  0  0  0  0  0  0  0  0
   -3.1217   -0.8771    0.1818 C   0  0  0  0  0  0  0  0  0  0  0  0
   -3.8983   -1.7351    0.9290 O   0  0  0  0  0  0  0  0  0  0  0  0
   -4.4214   -1.3419    2.1802 C   0  0  0  0  0  0  0  0  0  0  0  0
   -3.4613    0.4643    0.2050 C   0  0  0  0  0  0  0  0  0  0  0  0
   -2.5211    1.3751   -0.2554 C   0  0  0  0  0  0  0  0  0  0  0  0
   -2.8857    2.7777   -0.6157 C   0  0  0  0  0  0  0  0  0  0  0  0
   -1.8362    3.6835   -0.3289 O   0  0  0  0  0  0  0  0  0  0  0  0
   -0.5646    3.3181   -0.7814 C   0  0  0  0  0  0  0  0  0  0  0  0
    0.3787    4.1521   -0.6465 O   0  0  0  0  0  0  0  0  0  0  0  0
    2.3230   -0.5725   -0.8107 C   0  0  0  0  0  0  0  0  0  0  0  0
    2.5848   -0.2753   -2.1521 O   0  0  0  0  0  0  0  0  0  0  0  0
    3.9034    0.1310   -2.4924 C   0  0  0  0  0  0  0  0  0  0  0  0
    3.1608   -1.4337   -0.1120 C   0  0  0  0  0  0  0  0  0  0  0  0
  1  2  1  0  0  0  0
  2  3  1  0  0  0  0
  3  4  2  0  0  0  0
  4  5  1  0  0  0  0
  5  6  2  0  0  0  0
  6  7  1  0  0  0  0
  6 23  1  0  0  0  0
  7  8  2  0  0  0  0
  8  9  1  0  0  0  0
  9 10  2  0  0  0  0
 10 11  1  0  0  0  0
 11 12  1  0  0  0  0
 11 14  2  0  0  0  0
 12 13  1  0  0  0  0
 14 15  1  0  0  0  0
 14 17  1  0  0  0  0
 15 16  1  0  0  0  0
 17 18  2  0  0  0  0
 18 19  1  0  0  0  0
 18  9  1  0  0  0  0
 19 20  1  0  0  0  0
 20 21  1  0  0  0  0
 21 22  2  0  0  0  0
 21  8  1  0  0  0  0
 23 24  1  0  0  0  0
 23 26  2  0  0  0  0
 24 25  1  0  0  0  0
 26  3  1  0  0  0  0
M  END
>  <zinc_id>
ZINC000032701425

>  <smiles>
COc1ccc(/C=C2/C(=O)OCc3cc(OC)c(OC)cc32)c(OC)c1

$$$$
