
 OpenBabel05042123343D

 27 30  0  0  0  0  0  0  0  0999 V2000
   -2.4874   -3.6403    1.4857 C   0  0  0  0  0  0  0  0  0  0  0  0
   -2.8681   -2.5888    0.6107 O   0  0  0  0  0  0  0  0  0  0  0  0
   -2.9274   -1.2626    1.0102 C   0  0  0  0  0  0  0  0  0  0  0  0
   -4.1220   -0.6713    1.4033 C   0  0  0  0  0  0  0  0  0  0  0  0
   -4.2682    0.7040    1.2959 C   0  0  0  0  0  0  0  0  0  0  0  0
   -3.1220    1.4639    1.3232 C   0  0  0  0  0  0  0  0  0  0  0  0
   -1.9111    0.8473    1.1661 C   0  0  0  0  0  0  0  0  0  0  0  0
   -1.8358   -0.4742    0.7433 C   0  0  0  0  0  0  0  0  0  0  0  0
   -0.4832   -1.0131    0.5523 C   0  0  0  0  0  0  0  0  0  0  0  0
    0.2605   -0.7132   -0.5052 C   0  0  0  0  0  0  0  0  0  0  0  0
   -0.4322   -0.2689   -1.7187 C   0  0  0  0  0  0  0  0  0  0  0  0
   -1.6904   -0.2817   -1.7349 O   0  0  0  0  0  0  0  0  0  0  0  0
    0.3278    0.4738   -2.6248 O   0  0  0  0  0  0  0  0  0  0  0  0
    1.4906    1.1740   -2.2569 C   0  0  0  0  0  0  0  0  0  0  0  0
    2.3481    0.3986   -1.3129 C   0  0  0  0  0  0  0  0  0  0  0  0
    3.4713    1.0743   -0.8489 C   0  0  0  0  0  0  0  0  0  0  0  0
    4.0975    0.5606    0.2788 C   0  0  0  0  0  0  0  0  0  0  0  0
    5.2921    1.0790    0.7678 O   0  0  0  0  0  0  0  0  0  0  0  0
    5.3173    2.3760    1.3031 C   0  0  0  0  0  0  0  0  0  0  0  0
    3.7167   -0.6791    0.7729 C   0  0  0  0  0  0  0  0  0  0  0  0
    4.6106   -1.5073    1.4549 O   0  0  0  0  0  0  0  0  0  0  0  0
    4.8007   -2.8160    0.9217 C   0  0  0  0  0  0  0  0  0  0  0  0
    2.3733   -1.0055    0.6345 C   0  0  0  0  0  0  0  0  0  0  0  0
    1.6897   -0.4675   -0.4476 C   0  0  0  0  0  0  0  0  0  0  0  0
   -3.4566    2.8050    1.2594 O   0  0  0  0  0  0  0  0  0  0  0  0
   -4.8459    2.8757    0.9469 C   0  0  0  0  0  0  0  0  0  0  0  0
   -5.3458    1.5573    1.1092 O   0  0  0  0  0  0  0  0  0  0  0  0
  1  2  1  0  0  0  0
  2  3  1  0  0  0  0
  3  4  2  0  0  0  0
  4  5  1  0  0  0  0
  5  6  2  0  0  0  0
  6  7  1  0  0  0  0
  6 25  1  0  0  0  0
  7  8  2  0  0  0  0
  8  9  1  0  0  0  0
  8  3  1  0  0  0  0
  9 10  2  0  0  0  0
 10 11  1  0  0  0  0
 11 12  2  0  0  0  0
 11 13  1  0  0  0  0
 13 14  1  0  0  0  0
 14 15  1  0  0  0  0
 15 16  2  0  0  0  0
 16 17  1  0  0  0  0
 17 18  1  0  0  0  0
 17 20  2  0  0  0  0
 18 19  1  0  0  0  0
 20 21  1  0  0  0  0
 20 23  1  0  0  0  0
 21 22  1  0  0  0  0
 23 24  2  0  0  0  0
 24 10  1  0  0  0  0
 24 15  1  0  0  0  0
 25 26  1  0  0  0  0
 26 27  1  0  0  0  0
 27  5  1  0  0  0  0
M  END
>  <zinc_id>
ZINC000055104339

>  <smiles>
COc1cc2c(cc1/C=C1\C(=O)OCc3cc(OC)c(OC)cc31)OCO2

$$$$
