
 OpenBabel05042123343D

 24 26  0  0  0  0  0  0  0  0999 V2000
   -4.0340    2.9153   -0.2294 C   0  0  0  0  0  0  0  0  0  0  0  0
   -3.1619    2.3291   -1.1926 O   0  0  0  0  0  0  0  0  0  0  0  0
   -2.6203    1.0711   -0.9142 C   0  0  0  0  0  0  0  0  0  0  0  0
   -1.3966    0.9320   -0.2738 C   0  0  0  0  0  0  0  0  0  0  0  0
   -1.2363   -0.0706    0.6739 C   0  0  0  0  0  0  0  0  0  0  0  0
    0.0957   -0.2568    1.2633 C   0  0  0  0  0  0  0  0  0  0  0  0
    1.0590   -0.5792    0.4199 C   0  0  0  0  0  0  0  0  0  0  0  0
    2.4828   -0.5260    0.7778 C   0  0  0  0  0  0  0  0  0  0  0  0
    3.2801   -1.6251    0.4834 C   0  0  0  0  0  0  0  0  0  0  0  0
    4.5502   -1.4886   -0.0638 C   0  0  0  0  0  0  0  0  0  0  0  0
    5.0937   -0.2228   -0.2491 C   0  0  0  0  0  0  0  0  0  0  0  0
    5.8753    0.0303   -1.3740 O   0  0  0  0  0  0  0  0  0  0  0  0
    4.4466    0.8195    0.4035 C   0  0  0  0  0  0  0  0  0  0  0  0
    5.0061    2.0836    0.1926 O   0  0  0  0  0  0  0  0  0  0  0  0
    4.1316    3.1912    0.0004 C   0  0  0  0  0  0  0  0  0  0  0  0
    3.1605    0.6798    0.9081 C   0  0  0  0  0  0  0  0  0  0  0  0
   -2.1319   -1.1288    0.7628 C   0  0  0  0  0  0  0  0  0  0  0  0
   -2.2196   -1.7771    1.9879 O   0  0  0  0  0  0  0  0  0  0  0  0
   -2.3658   -1.0220    3.1887 C   0  0  0  0  0  0  0  0  0  0  0  0
   -3.1711   -1.1347   -0.1576 C   0  0  0  0  0  0  0  0  0  0  0  0
   -3.3797   -0.0864   -1.0403 C   0  0  0  0  0  0  0  0  0  0  0  0
   -4.4641   -0.3640   -1.8433 O   0  0  0  0  0  0  0  0  0  0  0  0
   -4.8029   -1.7219   -1.5882 C   0  0  0  0  0  0  0  0  0  0  0  0
   -4.1975   -2.0480   -0.3408 O   0  0  0  0  0  0  0  0  0  0  0  0
  1  2  1  0  0  0  0
  2  3  1  0  0  0  0
  3  4  2  0  0  0  0
  4  5  1  0  0  0  0
  5  6  1  0  0  0  0
  5 17  2  0  0  0  0
  6  7  2  0  0  0  0
  7  8  1  0  0  0  0
  8  9  2  0  0  0  0
  9 10  1  0  0  0  0
 10 11  2  0  0  0  0
 11 12  1  0  0  0  0
 11 13  1  0  0  0  0
 13 14  1  0  0  0  0
 13 16  2  0  0  0  0
 14 15  1  0  0  0  0
 16  8  1  0  0  0  0
 17 18  1  0  0  0  0
 17 20  1  0  0  0  0
 18 19  1  0  0  0  0
 20 21  2  0  0  0  0
 21 22  1  0  0  0  0
 21  3  1  0  0  0  0
 22 23  1  0  0  0  0
 23 24  1  0  0  0  0
 24 20  1  0  0  0  0
M  END
>  <zinc_id>
ZINC000066088586

>  <smiles>
COc1cc(/C=C/c2cc(OC)c3c(c2OC)OCO3)ccc1O

$$$$
