
 OpenBabel05042123343D

 25 26  0  0  0  0  0  0  0  0999 V2000
    6.5351    0.9504   -0.2894 C   0  0  0  0  0  0  0  0  0  0  0  0
    5.9391   -0.0590    0.5190 O   0  0  0  0  0  0  0  0  0  0  0  0
    4.6078   -0.3719    0.3529 C   0  0  0  0  0  0  0  0  0  0  0  0
    4.1367   -1.6501    0.1102 C   0  0  0  0  0  0  0  0  0  0  0  0
    2.8258   -1.8436   -0.3106 C   0  0  0  0  0  0  0  0  0  0  0  0
    1.9226   -0.7907   -0.4110 C   0  0  0  0  0  0  0  0  0  0  0  0
    1.0060   -0.8333   -1.5598 C   0  0  0  0  0  0  0  0  0  0  0  0
   -0.1939   -1.3447   -1.2793 C   0  0  0  0  0  0  0  0  0  0  0  0
   -0.9201   -0.6327   -0.2177 C   0  0  0  0  0  0  0  0  0  0  0  0
   -0.7941    0.7433   -0.0626 C   0  0  0  0  0  0  0  0  0  0  0  0
   -1.7527    1.5258    0.5237 C   0  0  0  0  0  0  0  0  0  0  0  0
   -1.5226    2.8369    0.9442 O   0  0  0  0  0  0  0  0  0  0  0  0
   -0.6433    3.6727    0.1968 C   0  0  0  0  0  0  0  0  0  0  0  0
   -3.0633    1.0856    0.3922 C   0  0  0  0  0  0  0  0  0  0  0  0
   -4.1483    1.9657    0.4161 O   0  0  0  0  0  0  0  0  0  0  0  0
   -5.1001    1.7633   -0.6274 C   0  0  0  0  0  0  0  0  0  0  0  0
   -3.2295   -0.2914    0.4610 C   0  0  0  0  0  0  0  0  0  0  0  0
   -4.5549   -0.7354    0.4821 O   0  0  0  0  0  0  0  0  0  0  0  0
   -4.9074   -1.6894   -0.5072 C   0  0  0  0  0  0  0  0  0  0  0  0
   -2.1736   -1.1287    0.1259 C   0  0  0  0  0  0  0  0  0  0  0  0
   -2.4297   -2.5010    0.0786 O   0  0  0  0  0  0  0  0  0  0  0  0
   -1.5514   -3.4265   -0.5120 C   0  0  0  0  0  0  0  0  0  0  0  0
    2.4622    0.4586   -0.1254 C   0  0  0  0  0  0  0  0  0  0  0  0
    3.6501    0.6091    0.5614 C   0  0  0  0  0  0  0  0  0  0  0  0
    3.8993    1.6870    1.4094 O   0  0  0  0  0  0  0  0  0  0  0  0
  1  2  1  0  0  0  0
  2  3  1  0  0  0  0
  3  4  2  0  0  0  0
  4  5  1  0  0  0  0
  5  6  2  0  0  0  0
  6  7  1  0  0  0  0
  6 23  1  0  0  0  0
  7  8  2  0  0  0  0
  8  9  1  0  0  0  0
  9 10  2  0  0  0  0
 10 11  1  0  0  0  0
 11 12  1  0  0  0  0
 11 14  2  0  0  0  0
 12 13  1  0  0  0  0
 14 15  1  0  0  0  0
 14 17  1  0  0  0  0
 15 16  1  0  0  0  0
 17 18  1  0  0  0  0
 17 20  2  0  0  0  0
 18 19  1  0  0  0  0
 20 21  1  0  0  0  0
 20  9  1  0  0  0  0
 21 22  1  0  0  0  0
 23 24  2  0  0  0  0
 24 25  1  0  0  0  0
 24  3  1  0  0  0  0
M  END
>  <zinc_id>
ZINC000066088590

>  <smiles>
COc1ccc(/C=C\c2cc(OC)c(OC)c(OC)c2OC)cc1O

$$$$
