
 OpenBabel05042123343D

 24 26  0  0  0  0  0  0  0  0999 V2000
    4.9648   -3.1784   -0.8901 C   0  0  0  0  0  0  0  0  0  0  0  0
    5.3449   -2.1092   -0.0625 O   0  0  0  0  0  0  0  0  0  0  0  0
    4.4270   -1.0941    0.2099 C   0  0  0  0  0  0  0  0  0  0  0  0
    4.0110   -0.9081    1.5208 C   0  0  0  0  0  0  0  0  0  0  0  0
    2.7319   -0.4131    1.7351 C   0  0  0  0  0  0  0  0  0  0  0  0
    2.0229    0.2658    0.7519 C   0  0  0  0  0  0  0  0  0  0  0  0
    1.3463    1.5090    1.1488 C   0  0  0  0  0  0  0  0  0  0  0  0
    0.0549    1.3592    1.4472 C   0  0  0  0  0  0  0  0  0  0  0  0
   -0.7506    0.7870    0.3596 C   0  0  0  0  0  0  0  0  0  0  0  0
   -0.9762   -0.5800    0.2605 C   0  0  0  0  0  0  0  0  0  0  0  0
   -2.2130   -1.1091   -0.0525 C   0  0  0  0  0  0  0  0  0  0  0  0
   -3.0368   -0.3008   -0.8246 C   0  0  0  0  0  0  0  0  0  0  0  0
   -2.7745    1.0616   -0.8981 C   0  0  0  0  0  0  0  0  0  0  0  0
   -3.7404    1.9590   -1.3645 O   0  0  0  0  0  0  0  0  0  0  0  0
   -4.7998    2.4320   -0.5620 C   0  0  0  0  0  0  0  0  0  0  0  0
   -1.7977    1.5963   -0.0674 C   0  0  0  0  0  0  0  0  0  0  0  0
   -1.8802    2.9351    0.3291 O   0  0  0  0  0  0  0  0  0  0  0  0
   -1.7049    3.1681    1.7248 C   0  0  0  0  0  0  0  0  0  0  0  0
   -4.1757   -1.0657   -1.0964 O   0  0  0  0  0  0  0  0  0  0  0  0
   -4.1785   -2.2369   -0.3176 C   0  0  0  0  0  0  0  0  0  0  0  0
   -2.8157   -2.3640    0.0787 O   0  0  0  0  0  0  0  0  0  0  0  0
    2.4741    0.0710   -0.5478 C   0  0  0  0  0  0  0  0  0  0  0  0
    3.6505   -0.6013   -0.8322 C   0  0  0  0  0  0  0  0  0  0  0  0
    3.8159   -1.1833   -2.0934 O   0  0  0  0  0  0  0  0  0  0  0  0
  1  2  1  0  0  0  0
  2  3  1  0  0  0  0
  3  4  2  0  0  0  0
  4  5  1  0  0  0  0
  5  6  2  0  0  0  0
  6  7  1  0  0  0  0
  6 22  1  0  0  0  0
  7  8  2  0  0  0  0
  8  9  1  0  0  0  0
  9 10  2  0  0  0  0
 10 11  1  0  0  0  0
 11 12  2  0  0  0  0
 12 13  1  0  0  0  0
 12 19  1  0  0  0  0
 13 14  1  0  0  0  0
 13 16  2  0  0  0  0
 14 15  1  0  0  0  0
 16 17  1  0  0  0  0
 16  9  1  0  0  0  0
 17 18  1  0  0  0  0
 19 20  1  0  0  0  0
 20 21  1  0  0  0  0
 21 11  1  0  0  0  0
 22 23  2  0  0  0  0
 23 24  1  0  0  0  0
 23  3  1  0  0  0  0
M  END
>  <zinc_id>
ZINC000066088597

>  <smiles>
COc1ccc(/C=C\c2cc3c(c(OC)c2OC)OCO3)cc1O

$$$$
