
 OpenBabel05042123343D

 23 25  0  0  0  0  0  0  0  0999 V2000
    6.3368    1.7351   -0.0067 C   0  0  0  0  0  0  0  0  0  0  0  0
    6.2332    0.3732   -0.4176 O   0  0  0  0  0  0  0  0  0  0  0  0
    4.9634   -0.2000   -0.5429 C   0  0  0  0  0  0  0  0  0  0  0  0
    4.0966    0.1570   -1.5661 C   0  0  0  0  0  0  0  0  0  0  0  0
    2.7340    0.3175   -1.3505 C   0  0  0  0  0  0  0  0  0  0  0  0
    2.2024   -0.0192   -0.1347 C   0  0  0  0  0  0  0  0  0  0  0  0
    0.9930    0.6001    0.4213 C   0  0  0  0  0  0  0  0  0  0  0  0
   -0.0211    0.9971   -0.3050 C   0  0  0  0  0  0  0  0  0  0  0  0
   -1.4192    0.7043    0.0079 C   0  0  0  0  0  0  0  0  0  0  0  0
   -2.3805    0.8658   -0.9784 C   0  0  0  0  0  0  0  0  0  0  0  0
   -3.5614    0.1410   -0.9130 C   0  0  0  0  0  0  0  0  0  0  0  0
   -3.7091   -0.7971    0.1013 C   0  0  0  0  0  0  0  0  0  0  0  0
   -2.8333   -0.8509    1.1775 C   0  0  0  0  0  0  0  0  0  0  0  0
   -1.7630   -0.0003    1.1559 C   0  0  0  0  0  0  0  0  0  0  0  0
   -1.0256    0.3373    2.2956 O   0  0  0  0  0  0  0  0  0  0  0  0
   -1.7877    0.4666    3.4936 C   0  0  0  0  0  0  0  0  0  0  0  0
   -4.8612   -1.5488    0.0986 O   0  0  0  0  0  0  0  0  0  0  0  0
   -6.0815   -1.1645   -0.4780 C   0  0  0  0  0  0  0  0  0  0  0  0
   -6.0158    0.1782   -1.1689 C   0  0  0  0  0  0  0  0  0  0  0  0
   -4.7127    0.5141   -1.5888 O   0  0  0  0  0  0  0  0  0  0  0  0
    3.0160   -0.7288    0.7382 C   0  0  0  0  0  0  0  0  0  0  0  0
    4.3980   -0.7609    0.5965 C   0  0  0  0  0  0  0  0  0  0  0  0
    5.1987   -1.3168    1.5991 O   0  0  0  0  0  0  0  0  0  0  0  0
  1  2  1  0  0  0  0
  2  3  1  0  0  0  0
  3  4  2  0  0  0  0
  4  5  1  0  0  0  0
  5  6  2  0  0  0  0
  6  7  1  0  0  0  0
  6 21  1  0  0  0  0
  7  8  2  0  0  0  0
  8  9  1  0  0  0  0
  9 10  2  0  0  0  0
 10 11  1  0  0  0  0
 11 12  2  0  0  0  0
 12 13  1  0  0  0  0
 12 17  1  0  0  0  0
 13 14  2  0  0  0  0
 14 15  1  0  0  0  0
 14  9  1  0  0  0  0
 15 16  1  0  0  0  0
 17 18  1  0  0  0  0
 18 19  1  0  0  0  0
 19 20  1  0  0  0  0
 20 11  1  0  0  0  0
 21 22  2  0  0  0  0
 22 23  1  0  0  0  0
 22  3  1  0  0  0  0
M  END
>  <zinc_id>
ZINC000066088605

>  <smiles>
COc1ccc(/C=C/c2cc3c(cc2OC)OCCO3)cc1O

$$$$
