
 OpenBabel05042123343D

 24 25  0  0  0  0  0  0  0  0999 V2000
    7.1542    0.7825    0.4965 C   0  0  0  0  0  0  0  0  0  0  0  0
    6.0640   -0.0439    0.8963 O   0  0  0  0  0  0  0  0  0  0  0  0
    4.7801    0.1752    0.4313 C   0  0  0  0  0  0  0  0  0  0  0  0
    4.3981    1.4666    0.0893 C   0  0  0  0  0  0  0  0  0  0  0  0
    3.0659    1.6301   -0.2705 C   0  0  0  0  0  0  0  0  0  0  0  0
    2.3131    0.5589   -0.7337 C   0  0  0  0  0  0  0  0  0  0  0  0
    0.8688    0.7243   -0.9478 C   0  0  0  0  0  0  0  0  0  0  0  0
    0.0117   -0.2702   -0.7867 C   0  0  0  0  0  0  0  0  0  0  0  0
   -1.2230   -0.1589   -0.0210 C   0  0  0  0  0  0  0  0  0  0  0  0
   -2.0465   -1.2610    0.0149 C   0  0  0  0  0  0  0  0  0  0  0  0
   -3.4008   -1.0725    0.2613 C   0  0  0  0  0  0  0  0  0  0  0  0
   -4.2098   -2.1613    0.6001 O   0  0  0  0  0  0  0  0  0  0  0  0
   -3.7619   -2.9245    1.7177 C   0  0  0  0  0  0  0  0  0  0  0  0
   -3.9350    0.1770    0.5305 C   0  0  0  0  0  0  0  0  0  0  0  0
   -5.2349    0.4210    0.0780 O   0  0  0  0  0  0  0  0  0  0  0  0
   -6.2415   -0.5558    0.1793 C   0  0  0  0  0  0  0  0  0  0  0  0
   -3.0565    1.2438    0.6697 C   0  0  0  0  0  0  0  0  0  0  0  0
   -3.5988    2.5264    0.6415 O   0  0  0  0  0  0  0  0  0  0  0  0
   -3.3841    3.2651   -0.5532 C   0  0  0  0  0  0  0  0  0  0  0  0
   -1.6977    1.0484    0.4638 C   0  0  0  0  0  0  0  0  0  0  0  0
    2.8910   -0.7031   -0.6574 C   0  0  0  0  0  0  0  0  0  0  0  0
    2.0906   -1.7877   -1.0026 O   0  0  0  0  0  0  0  0  0  0  0  0
    3.9515   -0.9155    0.2137 C   0  0  0  0  0  0  0  0  0  0  0  0
    4.2016   -2.1648    0.7890 O   0  0  0  0  0  0  0  0  0  0  0  0
  1  2  1  0  0  0  0
  2  3  1  0  0  0  0
  3  4  2  0  0  0  0
  4  5  1  0  0  0  0
  5  6  2  0  0  0  0
  6  7  1  0  0  0  0
  6 21  1  0  0  0  0
  7  8  2  0  0  0  0
  8  9  1  0  0  0  0
  9 10  2  0  0  0  0
 10 11  1  0  0  0  0
 11 12  1  0  0  0  0
 11 14  2  0  0  0  0
 12 13  1  0  0  0  0
 14 15  1  0  0  0  0
 14 17  1  0  0  0  0
 15 16  1  0  0  0  0
 17 18  1  0  0  0  0
 17 20  2  0  0  0  0
 18 19  1  0  0  0  0
 20  9  1  0  0  0  0
 21 22  1  0  0  0  0
 21 23  2  0  0  0  0
 23 24  1  0  0  0  0
 23  3  1  0  0  0  0
M  END
>  <zinc_id>
ZINC000001607446

>  <smiles>
COc1ccc(/C=C/c2cc(OC)c(OC)c(OC)c2)c(O)c1O

$$$$
