
 OpenBabel05042123343D

 29 31  0  0  0  0  0  0  0  0999 V2000
    5.0250    3.0383   -0.9062 O   0  0  0  0  0  0  0  0  0  0  0  0
    4.8081    2.6784   -0.9482 C   0  0  0  0  0  0  0  0  0  0  0  0
    4.0627    1.7941    0.2542 C   0  0  1  0  0  0  0  0  0  0  0  0
    3.0936    1.2028   -0.7564 O   0  0  0  0  0  0  0  0  0  0  0  0
    2.0989    1.2156    0.4194 C   0  0  1  0  0  0  0  0  0  0  0  0
    1.1495    0.2263   -0.3345 O   0  0  0  0  0  0  0  0  0  0  0  0
    0.2782   -0.5624    0.3147 C   0  0  0  0  0  0  0  0  0  0  0  0
    0.5028   -1.4825    1.3289 C   0  0  0  0  0  0  0  0  0  0  0  0
    0.3077   -2.8501    1.1730 C   0  0  0  0  0  0  0  0  0  0  0  0
    0.9795   -3.7757    1.9710 O   0  0  0  0  0  0  0  0  0  0  0  0
   -0.4104   -3.2823    0.0689 C   0  0  0  0  0  0  0  0  0  0  0  0
   -0.7843   -2.4003   -0.9041 C   0  0  0  0  0  0  0  0  0  0  0  0
   -0.6680   -1.0471   -0.5999 C   0  0  0  0  0  0  0  0  0  0  0  0
   -1.5599   -0.0272   -1.1755 C   0  0  0  0  0  0  0  0  0  0  0  0
   -2.7257   -0.2492   -1.7179 C   0  0  0  0  0  0  0  0  0  0  0  0
   -4.0227    0.0923   -1.1110 C   0  0  0  0  0  0  0  0  0  0  0  0
   -4.5601    1.3643   -1.1726 C   0  0  0  0  0  0  0  0  0  0  0  0
   -5.4314    1.8586   -0.2105 C   0  0  0  0  0  0  0  0  0  0  0  0
   -6.3527    2.8575   -0.4808 O   0  0  0  0  0  0  0  0  0  0  0  0
   -5.5417    1.1229    0.9461 C   0  0  0  0  0  0  0  0  0  0  0  0
   -5.1188   -0.1987    1.0215 C   0  0  0  0  0  0  0  0  0  0  0  0
   -4.9436   -0.8423    2.2529 O   0  0  0  0  0  0  0  0  0  0  0  0
   -4.6449   -0.7302   -0.1726 C   0  0  0  0  0  0  0  0  0  0  0  0
    2.8194   -0.0674    1.3825 C   0  0  2  0  0  0  0  0  0  0  0  0
    3.7876    0.8348    2.1245 O   0  0  0  0  0  0  0  0  0  0  0  0
    3.9441   -0.8264    0.3174 C   0  0  1  0  0  0  0  0  0  0  0  0
    3.1120   -0.7391   -0.9608 O   0  0  0  0  0  0  0  0  0  0  0  0
    5.0647    0.4314   -0.0844 C   0  0  2  0  0  0  0  0  0  0  0  0
    5.7306    0.3636    1.2762 O   0  0  0  0  0  0  0  0  0  0  0  0
  1  2  1  0  0  0  0
  3  2  1  6  0  0  0
  3  4  1  0  0  0  0
  4  5  1  0  0  0  0
  5  6  1  6  0  0  0
  5 24  1  0  0  0  0
  6  7  1  0  0  0  0
  7  8  2  0  0  0  0
  8  9  1  0  0  0  0
  9 10  1  0  0  0  0
  9 11  2  0  0  0  0
 11 12  1  0  0  0  0
 12 13  2  0  0  0  0
 13 14  1  0  0  0  0
 13  7  1  0  0  0  0
 14 15  2  0  0  0  0
 15 16  1  0  0  0  0
 16 17  2  0  0  0  0
 17 18  1  0  0  0  0
 18 19  1  0  0  0  0
 18 20  2  0  0  0  0
 20 21  1  0  0  0  0
 21 22  1  0  0  0  0
 21 23  2  0  0  0  0
 23 16  1  0  0  0  0
 24 25  1  1  0  0  0
 24 26  1  0  0  0  0
 26 27  1  6  0  0  0
 26 28  1  0  0  0  0
 28 29  1  1  0  0  0
 28  3  1  0  0  0  0
M  END
>  <zinc_id>
ZINC000140382763

>  <smiles>
OC[C@H]1O[C@@H](Oc2cc(O)ccc2/C=C/c2cc(O)cc(O)c2)[C@H](O)[C@@H](O)[C@@H]1O

$$$$
