
 OpenBabel05042123343D

 29 31  0  0  0  0  0  0  0  0999 V2000
   -4.9548    1.8273   -1.8187 O   0  0  0  0  0  0  0  0  0  0  0  0
   -5.1100    1.3991   -1.6518 C   0  0  0  0  0  0  0  0  0  0  0  0
   -4.5892   -0.1212   -1.2970 C   0  0  1  0  0  0  0  0  0  0  0  0
   -3.5143    0.3704   -0.3748 O   0  0  0  0  0  0  0  0  0  0  0  0
   -3.4070   -1.0798    0.0235 C   0  0  1  0  0  0  0  0  0  0  0  0
   -1.9223   -0.9830    0.4450 O   0  0  0  0  0  0  0  0  0  0  0  0
   -1.0706   -0.3690   -0.4582 C   0  0  0  0  0  0  0  0  0  0  0  0
   -0.8872    0.9960   -0.2684 C   0  0  0  0  0  0  0  0  0  0  0  0
    0.3504    1.6100   -0.3596 C   0  0  0  0  0  0  0  0  0  0  0  0
    0.6054    2.8703    0.1929 O   0  0  0  0  0  0  0  0  0  0  0  0
    1.2858    0.9390   -1.1258 C   0  0  0  0  0  0  0  0  0  0  0  0
    1.2304   -0.4456   -1.2487 C   0  0  0  0  0  0  0  0  0  0  0  0
    2.4882   -1.2032   -1.3287 C   0  0  0  0  0  0  0  0  0  0  0  0
    3.1094   -1.7005   -0.2880 C   0  0  0  0  0  0  0  0  0  0  0  0
    4.5053   -1.4013    0.0619 C   0  0  0  0  0  0  0  0  0  0  0  0
    5.4475   -1.3896   -0.9522 C   0  0  0  0  0  0  0  0  0  0  0  0
    6.5207   -0.5105   -0.8780 C   0  0  0  0  0  0  0  0  0  0  0  0
    6.5845    0.4806    0.0936 C   0  0  0  0  0  0  0  0  0  0  0  0
    7.6752    1.3212    0.0813 O   0  0  0  0  0  0  0  0  0  0  0  0
    5.7543    0.3333    1.1952 C   0  0  0  0  0  0  0  0  0  0  0  0
    4.6896   -0.5415    1.1047 C   0  0  0  0  0  0  0  0  0  0  0  0
    3.7660   -0.4792    2.1513 O   0  0  0  0  0  0  0  0  0  0  0  0
    0.0182   -1.0648   -0.9715 C   0  0  0  0  0  0  0  0  0  0  0  0
   -3.9933   -0.7590    1.5992 C   0  0  1  0  0  0  0  0  0  0  0  0
   -3.0695    0.3851    1.9277 O   0  0  0  0  0  0  0  0  0  0  0  0
   -5.3398    0.2278    1.2708 C   0  0  1  0  0  0  0  0  0  0  0  0
   -4.6876    1.4886    0.7843 O   0  0  0  0  0  0  0  0  0  0  0  0
   -5.8858   -0.3761   -0.2189 C   0  0  2  0  0  0  0  0  0  0  0  0
   -5.5995   -1.8243    0.0962 O   0  0  0  0  0  0  0  0  0  0  0  0
  1  2  1  0  0  0  0
  3  2  1  6  0  0  0
  3  4  1  0  0  0  0
  4  5  1  0  0  0  0
  5  6  1  1  0  0  0
  5 24  1  0  0  0  0
  6  7  1  0  0  0  0
  7  8  2  0  0  0  0
  8  9  1  0  0  0  0
  9 10  1  0  0  0  0
  9 11  2  0  0  0  0
 11 12  1  0  0  0  0
 12 13  1  0  0  0  0
 12 23  2  0  0  0  0
 13 14  2  0  0  0  0
 14 15  1  0  0  0  0
 15 16  2  0  0  0  0
 16 17  1  0  0  0  0
 17 18  2  0  0  0  0
 18 19  1  0  0  0  0
 18 20  1  0  0  0  0
 20 21  2  0  0  0  0
 21 22  1  0  0  0  0
 21 15  1  0  0  0  0
 23  7  1  0  0  0  0
 24 25  1  1  0  0  0
 24 26  1  0  0  0  0
 26 27  1  6  0  0  0
 26 28  1  0  0  0  0
 28 29  1  1  0  0  0
 28  3  1  0  0  0  0
M  END
>  <zinc_id>
ZINC000299817507

>  <smiles>
OC[C@H]1O[C@@H](Oc2cc(O)cc(/C=C/c3ccc(O)cc3O)c2)[C@@H](O)[C@@H](O)[C@@H]1O

$$$$
