
 OpenBabel05042123343D

 29 31  0  0  0  0  0  0  0  0999 V2000
   -5.7591   -1.8271   -0.3024 O   0  0  0  0  0  0  0  0  0  0  0  0
   -5.3932   -1.6332   -0.6417 C   0  0  0  0  0  0  0  0  0  0  0  0
   -4.1969   -0.8214    0.2050 C   0  0  1  0  0  0  0  0  0  0  0  0
   -3.2980   -0.4102   -0.9773 O   0  0  0  0  0  0  0  0  0  0  0  0
   -2.9583    0.9474   -0.2935 C   0  0  1  0  0  0  0  0  0  0  0  0
   -1.5648    1.0352   -1.0451 O   0  0  0  0  0  0  0  0  0  0  0  0
   -0.6782    0.2534   -0.3268 C   0  0  0  0  0  0  0  0  0  0  0  0
   -0.8858   -1.0736   -0.0214 C   0  0  0  0  0  0  0  0  0  0  0  0
   -0.2513   -1.7077    1.0415 C   0  0  0  0  0  0  0  0  0  0  0  0
   -0.9676   -2.6288    1.8121 O   0  0  0  0  0  0  0  0  0  0  0  0
    0.6996   -0.9616    1.7096 C   0  0  0  0  0  0  0  0  0  0  0  0
    0.9828    0.3568    1.4048 C   0  0  0  0  0  0  0  0  0  0  0  0
    2.3519    0.8235    1.6691 C   0  0  0  0  0  0  0  0  0  0  0  0
    3.3913    0.0259    1.7211 C   0  0  0  0  0  0  0  0  0  0  0  0
    4.6417    0.2572    1.0041 C   0  0  0  0  0  0  0  0  0  0  0  0
    4.7635    1.1340   -0.0534 C   0  0  0  0  0  0  0  0  0  0  0  0
    5.5221    0.7423   -1.1502 C   0  0  0  0  0  0  0  0  0  0  0  0
    6.4582   -0.2727   -1.0197 C   0  0  0  0  0  0  0  0  0  0  0  0
    6.9926   -0.9159   -2.1219 O   0  0  0  0  0  0  0  0  0  0  0  0
    6.6480   -0.7736    0.2627 C   0  0  0  0  0  0  0  0  0  0  0  0
    5.7195   -0.5609    1.2711 C   0  0  0  0  0  0  0  0  0  0  0  0
    5.9293   -0.9720    2.5821 O   0  0  0  0  0  0  0  0  0  0  0  0
    0.4162    0.8619    0.2402 C   0  0  0  0  0  0  0  0  0  0  0  0
   -3.7615    1.9210   -1.5281 C   0  0  1  0  0  0  0  0  0  0  0  0
   -3.2303    1.1410   -2.7017 O   0  0  0  0  0  0  0  0  0  0  0  0
   -5.2877    1.0778   -1.3899 C   0  0  1  0  0  0  0  0  0  0  0  0
   -4.8413   -0.1989   -2.0573 O   0  0  0  0  0  0  0  0  0  0  0  0
   -5.0269    0.7181    0.2914 C   0  0  1  0  0  0  0  0  0  0  0  0
   -6.4156    0.1163    0.4156 O   0  0  0  0  0  0  0  0  0  0  0  0
  1  2  1  0  0  0  0
  3  2  1  6  0  0  0
  3  4  1  0  0  0  0
  4  5  1  0  0  0  0
  5  6  1  6  0  0  0
  5 24  1  0  0  0  0
  6  7  1  0  0  0  0
  7  8  2  0  0  0  0
  8  9  1  0  0  0  0
  9 10  1  0  0  0  0
  9 11  2  0  0  0  0
 11 12  1  0  0  0  0
 12 13  1  0  0  0  0
 12 23  2  0  0  0  0
 13 14  2  0  0  0  0
 14 15  1  0  0  0  0
 15 16  2  0  0  0  0
 16 17  1  0  0  0  0
 17 18  2  0  0  0  0
 18 19  1  0  0  0  0
 18 20  1  0  0  0  0
 20 21  2  0  0  0  0
 21 22  1  0  0  0  0
 21 15  1  0  0  0  0
 23  7  1  0  0  0  0
 24 25  1  6  0  0  0
 24 26  1  0  0  0  0
 26 27  1  6  0  0  0
 26 28  1  0  0  0  0
 28 29  1  1  0  0  0
 28  3  1  0  0  0  0
M  END
>  <zinc_id>
ZINC000299817509

>  <smiles>
OC[C@H]1O[C@@H](Oc2cc(O)cc(/C=C/c3ccc(O)cc3O)c2)[C@@H](O)[C@@H](O)[C@H]1O

$$$$
