
 OpenBabel05042123343D

 29 31  0  0  0  0  0  0  0  0999 V2000
   -5.7583   -0.4066   -2.1522 O   0  0  0  0  0  0  0  0  0  0  0  0
   -4.5964   -0.2636   -1.9700 C   0  0  0  0  0  0  0  0  0  0  0  0
   -4.5055    0.0955   -0.3463 C   0  0  1  0  0  0  0  0  0  0  0  0
   -3.5354   -1.0622   -0.1192 O   0  0  0  0  0  0  0  0  0  0  0  0
   -2.8870   -0.6634    1.2482 C   0  0  1  0  0  0  0  0  0  0  0  0
   -1.7944    0.1954    0.5082 O   0  0  0  0  0  0  0  0  0  0  0  0
   -0.8793   -0.7999    0.1722 C   0  0  0  0  0  0  0  0  0  0  0  0
   -1.1965   -1.9509   -0.5317 C   0  0  0  0  0  0  0  0  0  0  0  0
   -0.3550   -3.0563   -0.5908 C   0  0  0  0  0  0  0  0  0  0  0  0
   -0.8251   -4.2320   -1.1324 O   0  0  0  0  0  0  0  0  0  0  0  0
    0.5561   -3.1361    0.4572 C   0  0  0  0  0  0  0  0  0  0  0  0
    0.9269   -1.9783    1.1193 C   0  0  0  0  0  0  0  0  0  0  0  0
    0.3498   -0.7605    0.7736 C   0  0  0  0  0  0  0  0  0  0  0  0
    1.1111    0.4820    0.6550 C   0  0  0  0  0  0  0  0  0  0  0  0
    2.1245    0.6854   -0.1352 C   0  0  0  0  0  0  0  0  0  0  0  0
    3.5074    0.9038    0.1933 C   0  0  0  0  0  0  0  0  0  0  0  0
    4.0566    2.0471    0.6893 C   0  0  0  0  0  0  0  0  0  0  0  0
    5.4330    2.2140    0.6001 C   0  0  0  0  0  0  0  0  0  0  0  0
    6.0059    3.4720    0.3827 O   0  0  0  0  0  0  0  0  0  0  0  0
    6.2564    1.1422    0.2770 C   0  0  0  0  0  0  0  0  0  0  0  0
    5.7053   -0.1329    0.2380 C   0  0  0  0  0  0  0  0  0  0  0  0
    6.4884   -1.2560   -0.0424 O   0  0  0  0  0  0  0  0  0  0  0  0
    4.3480   -0.2052    0.1361 C   0  0  0  0  0  0  0  0  0  0  0  0
   -4.1016    0.5543    1.6078 C   0  0  1  0  0  0  0  0  0  0  0  0
   -3.4882    0.8172    2.9758 O   0  0  0  0  0  0  0  0  0  0  0  0
   -3.4612    1.9945    0.8896 C   0  0  1  0  0  0  0  0  0  0  0  0
   -2.0540    1.8602    1.4413 O   0  0  0  0  0  0  0  0  0  0  0  0
   -3.2274    1.2505   -0.6594 C   0  0  2  0  0  0  0  0  0  0  0  0
   -4.2041    2.1898   -1.3147 O   0  0  0  0  0  0  0  0  0  0  0  0
  1  2  1  0  0  0  0
  3  2  1  6  0  0  0
  3  4  1  0  0  0  0
  4  5  1  0  0  0  0
  5  6  1  6  0  0  0
  5 24  1  0  0  0  0
  6  7  1  0  0  0  0
  7  8  2  0  0  0  0
  8  9  1  0  0  0  0
  9 10  1  0  0  0  0
  9 11  2  0  0  0  0
 11 12  1  0  0  0  0
 12 13  2  0  0  0  0
 13 14  1  0  0  0  0
 13  7  1  0  0  0  0
 14 15  2  0  0  0  0
 15 16  1  0  0  0  0
 16 17  2  0  0  0  0
 17 18  1  0  0  0  0
 18 19  1  0  0  0  0
 18 20  2  0  0  0  0
 20 21  1  0  0  0  0
 21 22  1  0  0  0  0
 21 23  2  0  0  0  0
 23 16  1  0  0  0  0
 24 25  1  1  0  0  0
 24 26  1  0  0  0  0
 26 27  1  1  0  0  0
 26 28  1  0  0  0  0
 28 29  1  6  0  0  0
 28  3  1  0  0  0  0
M  END
>  <zinc_id>
ZINC000299817805

>  <smiles>
OC[C@H]1O[C@@H](Oc2cc(O)ccc2/C=C/c2cc(O)cc(O)c2)[C@@H](O)[C@@H](O)[C@@H]1O

$$$$
