
 OpenBabel05042123343D

 29 31  0  0  0  0  0  0  0  0999 V2000
   -4.5004   -3.0220   -1.4083 O   0  0  0  0  0  0  0  0  0  0  0  0
   -4.7756   -1.8033   -1.4089 C   0  0  0  0  0  0  0  0  0  0  0  0
   -4.5416   -1.4639    0.1817 C   0  0  1  0  0  0  0  0  0  0  0  0
   -3.0705   -1.2597   -0.0304 O   0  0  0  0  0  0  0  0  0  0  0  0
   -2.7185   -0.9991    1.4348 C   0  0  1  0  0  0  0  0  0  0  0  0
   -1.1762   -1.1034    1.2945 O   0  0  0  0  0  0  0  0  0  0  0  0
   -0.5954   -0.4975    0.2485 C   0  0  0  0  0  0  0  0  0  0  0  0
   -1.2228   -0.3364   -0.9228 C   0  0  0  0  0  0  0  0  0  0  0  0
   -0.9475    0.4322   -1.9766 C   0  0  0  0  0  0  0  0  0  0  0  0
   -1.8228    1.3540   -2.4840 O   0  0  0  0  0  0  0  0  0  0  0  0
    0.4130    0.3541   -2.2311 C   0  0  0  0  0  0  0  0  0  0  0  0
    1.2012   -0.2071   -1.2248 C   0  0  0  0  0  0  0  0  0  0  0  0
    0.7320   -0.2881    0.0939 C   0  0  0  0  0  0  0  0  0  0  0  0
    1.6199   -0.5498    1.2284 C   0  0  0  0  0  0  0  0  0  0  0  0
    2.6005    0.1728    1.6358 C   0  0  0  0  0  0  0  0  0  0  0  0
    3.9941    0.2610    1.2322 C   0  0  0  0  0  0  0  0  0  0  0  0
    4.3320    1.4893    0.6581 C   0  0  0  0  0  0  0  0  0  0  0  0
    5.3981    1.6912   -0.1638 C   0  0  0  0  0  0  0  0  0  0  0  0
    5.6072    2.9542   -0.7297 O   0  0  0  0  0  0  0  0  0  0  0  0
    6.0968    0.6012   -0.6203 C   0  0  0  0  0  0  0  0  0  0  0  0
    5.5983   -0.6583   -0.3547 C   0  0  0  0  0  0  0  0  0  0  0  0
    6.4252   -1.7159   -0.7454 O   0  0  0  0  0  0  0  0  0  0  0  0
    4.7021   -0.8023    0.6712 C   0  0  0  0  0  0  0  0  0  0  0  0
   -2.7934    0.6855    1.0466 C   0  0  2  0  0  0  0  0  0  0  0  0
   -2.4453    1.0277    2.4622 O   0  0  0  0  0  0  0  0  0  0  0  0
   -4.4485    0.7213    1.4461 C   0  0  1  0  0  0  0  0  0  0  0  0
   -4.5553    2.1428    0.9739 O   0  0  0  0  0  0  0  0  0  0  0  0
   -5.0840    0.1565   -0.0412 C   0  0  1  0  0  0  0  0  0  0  0  0
   -4.0229    0.6629   -0.9523 O   0  0  0  0  0  0  0  0  0  0  0  0
  1  2  1  0  0  0  0
  3  2  1  6  0  0  0
  3  4  1  0  0  0  0
  4  5  1  0  0  0  0
  5  6  1  6  0  0  0
  5 24  1  0  0  0  0
  6  7  1  0  0  0  0
  7  8  2  0  0  0  0
  8  9  1  0  0  0  0
  9 10  1  0  0  0  0
  9 11  2  0  0  0  0
 11 12  1  0  0  0  0
 12 13  2  0  0  0  0
 13 14  1  0  0  0  0
 13  7  1  0  0  0  0
 14 15  2  0  0  0  0
 15 16  1  0  0  0  0
 16 17  2  0  0  0  0
 17 18  1  0  0  0  0
 18 19  1  0  0  0  0
 18 20  2  0  0  0  0
 20 21  1  0  0  0  0
 21 22  1  0  0  0  0
 21 23  2  0  0  0  0
 23 16  1  0  0  0  0
 24 25  1  1  0  0  0
 24 26  1  0  0  0  0
 26 27  1  6  0  0  0
 26 28  1  0  0  0  0
 28 29  1  6  0  0  0
 28  3  1  0  0  0  0
M  END
>  <zinc_id>
ZINC000299817806

>  <smiles>
OC[C@H]1O[C@@H](Oc2cc(O)ccc2/C=C/c2cc(O)cc(O)c2)[C@H](O)[C@@H](O)[C@H]1O

$$$$
