
 OpenBabel05042123343D

 24 26  0  0  0  0  0  0  0  0999 V2000
    5.6595    1.9393   -0.0464 C   0  0  0  0  0  0  0  0  0  0  0  0
    5.1946    0.6516   -0.4309 O   0  0  0  0  0  0  0  0  0  0  0  0
    3.8518    0.2869   -0.3069 C   0  0  0  0  0  0  0  0  0  0  0  0
    3.4442   -0.8881   -0.9002 C   0  0  0  0  0  0  0  0  0  0  0  0
    2.1568   -1.3833   -0.7313 C   0  0  0  0  0  0  0  0  0  0  0  0
    1.4432   -1.9224   -1.8086 O   0  0  0  0  0  0  0  0  0  0  0  0
    1.3699   -3.3019   -2.0690 C   0  0  0  0  0  0  0  0  0  0  0  0
    1.3637   -0.8160    0.2594 C   0  0  0  0  0  0  0  0  0  0  0  0
    0.3393   -1.7030    0.8263 C   0  0  0  0  0  0  0  0  0  0  0  0
   -0.9026   -1.5433    0.3679 C   0  0  0  0  0  0  0  0  0  0  0  0
   -1.8169   -2.6622    0.3360 C   0  0  0  0  0  0  0  0  0  0  0  0
   -2.7061   -3.3988    0.5085 N   0  0  0  0  0  0  0  0  0  0  0  0
   -1.4015   -0.1625    0.3899 C   0  0  0  0  0  0  0  0  0  0  0  0
   -1.0133    0.7465   -0.5797 C   0  0  0  0  0  0  0  0  0  0  0  0
   -1.8188    1.8372   -0.8493 C   0  0  0  0  0  0  0  0  0  0  0  0
   -3.0898    1.9356   -0.3117 C   0  0  0  0  0  0  0  0  0  0  0  0
   -3.4229    1.1366    0.7726 C   0  0  0  0  0  0  0  0  0  0  0  0
   -2.5304    0.1331    1.1092 C   0  0  0  0  0  0  0  0  0  0  0  0
   -4.7993    1.3025    0.9606 O   0  0  0  0  0  0  0  0  0  0  0  0
   -5.3925    1.7697   -0.2498 C   0  0  0  0  0  0  0  0  0  0  0  0
   -4.2827    2.4700   -0.8077 O   0  0  0  0  0  0  0  0  0  0  0  0
    1.8727    0.2293    1.0207 C   0  0  0  0  0  0  0  0  0  0  0  0
    3.0551    0.8417    0.6875 C   0  0  0  0  0  0  0  0  0  0  0  0
    3.4261    2.5016    1.1452 Cl  0  0  0  0  0  0  0  0  0  0  0  0
  1  2  1  0  0  0  0
  2  3  1  0  0  0  0
  3  4  2  0  0  0  0
  4  5  1  0  0  0  0
  5  6  1  0  0  0  0
  5  8  2  0  0  0  0
  6  7  1  0  0  0  0
  8  9  1  0  0  0  0
  8 22  1  0  0  0  0
  9 10  2  0  0  0  0
 10 11  1  0  0  0  0
 10 13  1  0  0  0  0
 11 12  3  0  0  0  0
 13 14  2  0  0  0  0
 14 15  1  0  0  0  0
 15 16  2  0  0  0  0
 16 17  1  0  0  0  0
 17 18  2  0  0  0  0
 17 19  1  0  0  0  0
 18 13  1  0  0  0  0
 19 20  1  0  0  0  0
 20 21  1  0  0  0  0
 21 16  1  0  0  0  0
 22 23  2  0  0  0  0
 23 24  1  0  0  0  0
 23  3  1  0  0  0  0
M  END
>  <zinc_id>
ZINC000409364731

>  <smiles>
COc1cc(OC)c(/C=C(/C#N)c2ccc3c(c2)OCO3)cc1Cl

$$$$
