
 OpenBabel05042123343D

 25 27  0  0  0  0  0  0  0  0999 V2000
    6.1433   -2.6023    0.2683 C   0  0  0  0  0  0  0  0  0  0  0  0
    4.8481   -1.8431    0.2262 C   0  0  0  0  0  0  0  0  0  0  0  0
    4.6272   -1.2926   -1.0547 O   0  0  0  0  0  0  0  0  0  0  0  0
    3.5320   -0.4442   -1.2358 C   0  0  0  0  0  0  0  0  0  0  0  0
    2.2920   -0.9590   -1.5687 C   0  0  0  0  0  0  0  0  0  0  0  0
    1.1270   -0.3798   -1.0814 C   0  0  0  0  0  0  0  0  0  0  0  0
    1.1560    0.6691   -0.1922 C   0  0  0  0  0  0  0  0  0  0  0  0
    0.3257    0.7226    1.0185 C   0  0  0  0  0  0  0  0  0  0  0  0
   -0.6609   -0.1476    1.1594 C   0  0  0  0  0  0  0  0  0  0  0  0
   -1.0320   -0.6920    2.4458 C   0  0  0  0  0  0  0  0  0  0  0  0
   -1.1850   -1.3379    3.4062 N   0  0  0  0  0  0  0  0  0  0  0  0
   -1.5267   -0.2790   -0.0199 C   0  0  0  0  0  0  0  0  0  0  0  0
   -1.9289    0.8260   -0.7603 C   0  0  0  0  0  0  0  0  0  0  0  0
   -3.2500    0.9989   -1.1544 C   0  0  0  0  0  0  0  0  0  0  0  0
   -4.1698   -0.0258   -0.9636 C   0  0  0  0  0  0  0  0  0  0  0  0
   -3.6142   -1.2814   -0.7459 C   0  0  0  0  0  0  0  0  0  0  0  0
   -2.3914   -1.3652   -0.0900 C   0  0  0  0  0  0  0  0  0  0  0  0
   -4.6979   -2.1645   -0.7069 O   0  0  0  0  0  0  0  0  0  0  0  0
   -5.8975   -1.4902   -0.9838 C   0  0  0  0  0  0  0  0  0  0  0  0
   -5.5414   -0.1201   -0.8788 O   0  0  0  0  0  0  0  0  0  0  0  0
    2.3654    1.3505   -0.1142 C   0  0  0  0  0  0  0  0  0  0  0  0
    2.4044    2.5913    0.5144 O   0  0  0  0  0  0  0  0  0  0  0  0
    1.4471    3.5612    0.1518 C   0  0  0  0  0  0  0  0  0  0  0  0
    2.1059    4.8747   -0.2125 C   0  0  0  0  0  0  0  0  0  0  0  0
    3.5215    0.8306   -0.6857 C   0  0  0  0  0  0  0  0  0  0  0  0
  1  2  1  0  0  0  0
  2  3  1  0  0  0  0
  3  4  1  0  0  0  0
  4  5  2  0  0  0  0
  5  6  1  0  0  0  0
  6  7  2  0  0  0  0
  7  8  1  0  0  0  0
  7 21  1  0  0  0  0
  8  9  2  0  0  0  0
  9 10  1  0  0  0  0
  9 12  1  0  0  0  0
 10 11  3  0  0  0  0
 12 13  2  0  0  0  0
 13 14  1  0  0  0  0
 14 15  2  0  0  0  0
 15 16  1  0  0  0  0
 16 17  2  0  0  0  0
 16 18  1  0  0  0  0
 17 12  1  0  0  0  0
 18 19  1  0  0  0  0
 19 20  1  0  0  0  0
 20 15  1  0  0  0  0
 21 22  1  0  0  0  0
 21 25  2  0  0  0  0
 22 23  1  0  0  0  0
 23 24  1  0  0  0  0
 25  4  1  0  0  0  0
M  END
>  <zinc_id>
ZINC000409366073

>  <smiles>
CCOc1ccc(/C=C(/C#N)c2ccc3c(c2)OCO3)c(OCC)c1

$$$$
