
 OpenBabel05042123343D

 31 32  0  0  0  0  0  0  0  0999 V2000
    8.2787    0.7606   -0.7303 C   0  0  0  0  0  0  0  0  0  0  0  0
    8.2413    0.0891   -0.6602 O   0  0  0  0  0  0  0  0  0  0  0  0
    7.7659   -0.5059    0.5199 C   0  0  0  0  0  0  0  0  0  0  0  0
    6.4849    0.5577    0.7661 C   0  0  2  0  0  0  0  0  0  0  0  0
    6.0145   -0.2759    2.1504 C   0  0  0  0  0  0  0  0  0  0  0  0
    5.5606   -0.3138   -0.1113 O   0  0  0  0  0  0  0  0  0  0  0  0
    5.2065    0.4330   -1.1790 C   0  0  0  0  0  0  0  0  0  0  0  0
    3.6001    0.8741   -0.9437 C   0  0  2  0  0  0  0  0  0  0  0  0
    4.0012    1.7006    0.4659 C   0  0  0  0  0  0  0  0  0  0  0  0
    3.2557   -0.4087   -0.1477 O   0  0  0  0  0  0  0  0  0  0  0  0
    2.2825   -1.0472   -0.8866 C   0  0  0  0  0  0  0  0  0  0  0  0
    0.9686   -0.6982    0.0960 C   0  0  1  0  0  0  0  0  0  0  0  0
    0.8800    0.8568   -0.5240 C   0  0  0  0  0  0  0  0  0  0  0  0
   -0.0379   -1.2349   -0.9792 O   0  0  0  0  0  0  0  0  0  0  0  0
   -1.0468   -1.9519   -0.3248 C   0  0  0  0  0  0  0  0  0  0  0  0
   -0.9061   -3.2936    0.0089 C   0  0  0  0  0  0  0  0  0  0  0  0
   -1.7345   -3.9363    0.8959 C   0  0  0  0  0  0  0  0  0  0  0  0
   -1.2985   -5.1434    1.4431 O   0  0  0  0  0  0  0  0  0  0  0  0
   -2.6845   -3.1836    1.5731 C   0  0  0  0  0  0  0  0  0  0  0  0
   -2.7371   -1.8388    1.3299 C   0  0  0  0  0  0  0  0  0  0  0  0
   -2.0748   -1.2444    0.2620 C   0  0  0  0  0  0  0  0  0  0  0  0
   -2.2782    0.1818    0.0981 C   0  0  0  0  0  0  0  0  0  0  0  0
   -2.9850    0.7638   -0.8338 C   0  0  0  0  0  0  0  0  0  0  0  0
   -4.1626    1.6044   -0.5815 C   0  0  0  0  0  0  0  0  0  0  0  0
   -4.0903    2.9026   -0.1406 C   0  0  0  0  0  0  0  0  0  0  0  0
   -5.2671    3.5249    0.2365 C   0  0  0  0  0  0  0  0  0  0  0  0
   -5.2926    4.8469    0.6928 O   0  0  0  0  0  0  0  0  0  0  0  0
   -6.4462    2.8023    0.3426 C   0  0  0  0  0  0  0  0  0  0  0  0
   -6.4991    1.4890   -0.0757 C   0  0  0  0  0  0  0  0  0  0  0  0
   -7.5900    0.6576    0.2053 O   0  0  0  0  0  0  0  0  0  0  0  0
   -5.4091    1.0315   -0.8077 C   0  0  0  0  0  0  0  0  0  0  0  0
  1  2  1  0  0  0  0
  2  3  1  0  0  0  0
  4  3  1  0  0  0  0
  4  5  1  1  0  0  0
  4  6  1  0  0  0  0
  6  7  1  0  0  0  0
  8  7  1  0  0  0  0
  8  9  1  1  0  0  0
  8 10  1  0  0  0  0
 10 11  1  0  0  0  0
 12 11  1  0  0  0  0
 12 13  1  6  0  0  0
 12 14  1  0  0  0  0
 14 15  1  0  0  0  0
 15 16  2  0  0  0  0
 16 17  1  0  0  0  0
 17 18  1  0  0  0  0
 17 19  2  0  0  0  0
 19 20  1  0  0  0  0
 20 21  2  0  0  0  0
 21 22  1  0  0  0  0
 21 15  1  0  0  0  0
 22 23  2  0  0  0  0
 23 24  1  0  0  0  0
 24 25  2  0  0  0  0
 25 26  1  0  0  0  0
 26 27  1  0  0  0  0
 26 28  2  0  0  0  0
 28 29  1  0  0  0  0
 29 30  1  0  0  0  0
 29 31  2  0  0  0  0
 31 24  1  0  0  0  0
M  END
>  <zinc_id>
ZINC001229765254

>  <smiles>
COC[C@H](C)OC[C@H](C)OC[C@@H](C)Oc1cc(O)ccc1/C=C/c1cc(O)cc(O)c1

$$$$
