
 OpenBabel05042123343D

 32 34  0  0  0  0  0  0  0  0999 V2000
    7.3722    1.3179    0.3881 C   0  0  0  0  0  0  0  0  0  0  0  0
    7.2959    1.6120    0.2361 C   0  0  0  0  0  0  0  0  0  0  0  0
    8.1151    2.1077   -0.9554 C   0  0  0  0  0  0  0  0  0  0  0  0
    7.1470    2.7914    1.1949 C   0  0  0  0  0  0  0  0  0  0  0  0
    6.0079    1.3073   -0.3080 O   0  0  0  0  0  0  0  0  0  0  0  0
    5.2067    0.3032    0.2464 C   0  0  0  0  0  0  0  0  0  0  0  0
    5.6903   -0.4819    1.0994 O   0  0  0  0  0  0  0  0  0  0  0  0
    3.8079    0.5890    0.1462 N   0  0  0  0  0  0  0  0  0  0  0  0
    3.1538    1.1944    1.2878 C   0  0  0  0  0  0  0  0  0  0  0  0
    1.6401    1.0681    1.2108 C   0  0  0  0  0  0  0  0  0  0  0  0
    1.4875   -0.1800    0.1469 C   0  0  1  0  0  0  0  0  0  0  0  0
   -0.0358    0.0063    0.0359 O   0  0  0  0  0  0  0  0  0  0  0  0
   -0.6472   -1.2611   -0.0254 C   0  0  0  0  0  0  0  0  0  0  0  0
   -0.0129   -2.4170   -0.3785 C   0  0  0  0  0  0  0  0  0  0  0  0
   -0.3941   -3.6744    0.0829 C   0  0  0  0  0  0  0  0  0  0  0  0
    0.6564   -4.5769    0.2892 O   0  0  0  0  0  0  0  0  0  0  0  0
   -1.4106   -3.6761    1.0319 C   0  0  0  0  0  0  0  0  0  0  0  0
   -2.2756   -2.5886    1.0771 C   0  0  0  0  0  0  0  0  0  0  0  0
   -1.9353   -1.3895    0.4773 C   0  0  0  0  0  0  0  0  0  0  0  0
   -2.7999   -0.2315    0.4311 C   0  0  0  0  0  0  0  0  0  0  0  0
   -3.7307   -0.0494   -0.4916 C   0  0  0  0  0  0  0  0  0  0  0  0
   -5.0701    0.4342   -0.1910 C   0  0  0  0  0  0  0  0  0  0  0  0
   -6.1516   -0.2509   -0.6785 C   0  0  0  0  0  0  0  0  0  0  0  0
   -7.4108    0.2653   -0.4165 C   0  0  0  0  0  0  0  0  0  0  0  0
   -8.4696   -0.2982   -1.1034 O   0  0  0  0  0  0  0  0  0  0  0  0
   -7.5742    1.1685    0.6028 C   0  0  0  0  0  0  0  0  0  0  0  0
   -6.4680    1.7113    1.2005 C   0  0  0  0  0  0  0  0  0  0  0  0
   -6.6484    2.5906    2.2584 O   0  0  0  0  0  0  0  0  0  0  0  0
   -5.1853    1.4022    0.7816 C   0  0  0  0  0  0  0  0  0  0  0  0
    1.7589    0.8185   -1.1388 C   0  0  0  0  0  0  0  0  0  0  0  0
    3.2517    0.6493   -1.1771 C   0  0  0  0  0  0  0  0  0  0  0  0
    3.6288   -0.2618   -1.9770 O   0  0  0  0  0  0  0  0  0  0  0  0
  1  2  1  0  0  0  0
  2  3  1  0  0  0  0
  2  4  1  0  0  0  0
  2  5  1  0  0  0  0
  5  6  1  0  0  0  0
  6  7  2  0  0  0  0
  6  8  1  0  0  0  0
  8  9  1  0  0  0  0
  9 10  1  0  0  0  0
 10 11  1  0  0  0  0
 11 12  1  6  0  0  0
 11 30  1  0  0  0  0
 12 13  1  0  0  0  0
 13 14  2  0  0  0  0
 14 15  1  0  0  0  0
 15 16  1  0  0  0  0
 15 17  2  0  0  0  0
 17 18  1  0  0  0  0
 18 19  2  0  0  0  0
 19 20  1  0  0  0  0
 19 13  1  0  0  0  0
 20 21  2  0  0  0  0
 21 22  1  0  0  0  0
 22 23  2  0  0  0  0
 23 24  1  0  0  0  0
 24 25  1  0  0  0  0
 24 26  2  0  0  0  0
 26 27  1  0  0  0  0
 27 28  1  0  0  0  0
 27 29  2  0  0  0  0
 29 22  1  0  0  0  0
 30 31  1  0  0  0  0
 31 32  2  0  0  0  0
 31  8  1  0  0  0  0
M  END
>  <zinc_id>
ZINC001229765415

>  <smiles>
CC(C)(C)OC(=O)N1CC[C@@H](Oc2cc(O)ccc2/C=C/c2cc(O)cc(O)c2)CC1=O

$$$$
