
 OpenBabel05042123343D

 31 34  0  0  0  0  0  0  0  0999 V2000
    0.0286    5.2642    0.8237 O   0  0  0  0  0  0  0  0  0  0  0  0
    0.4069    4.1061    0.1368 C   0  0  0  0  0  0  0  0  0  0  0  0
    1.5024    4.1145   -0.7170 C   0  0  0  0  0  0  0  0  0  0  0  0
    2.3223    3.0063   -0.7782 C   0  0  0  0  0  0  0  0  0  0  0  0
    2.0628    1.8612   -0.0344 C   0  0  0  0  0  0  0  0  0  0  0  0
    3.1314    0.9013    0.0895 C   0  0  0  0  0  0  0  0  0  0  0  0
    3.0834   -0.2262    0.7530 C   0  0  0  0  0  0  0  0  0  0  0  0
    4.1386   -1.2076    0.4681 C   0  0  0  0  0  0  0  0  0  0  0  0
    5.4791   -0.9203    0.6092 C   0  0  0  0  0  0  0  0  0  0  0  0
    6.4624   -1.4381   -0.2062 C   0  0  0  0  0  0  0  0  0  0  0  0
    7.7103   -0.8137   -0.2797 O   0  0  0  0  0  0  0  0  0  0  0  0
    6.0697   -2.2413   -1.2683 C   0  0  0  0  0  0  0  0  0  0  0  0
    4.7683   -2.7155   -1.3295 C   0  0  0  0  0  0  0  0  0  0  0  0
    4.4410   -3.5354   -2.4006 O   0  0  0  0  0  0  0  0  0  0  0  0
    3.8189   -2.1701   -0.4806 C   0  0  0  0  0  0  0  0  0  0  0  0
    0.8249    1.7470    0.5409 C   0  0  0  0  0  0  0  0  0  0  0  0
    0.4496    0.5114    1.0165 O   0  0  0  0  0  0  0  0  0  0  0  0
   -0.7757   -0.1231    0.7672 C   0  0  0  0  0  0  0  0  0  0  0  0
   -1.1774    0.0878   -0.6599 C   0  0  0  0  0  0  0  0  0  0  0  0
   -2.5501   -0.3806   -1.0021 C   0  0  0  0  0  0  0  0  0  0  0  0
   -3.3156   -0.8800    0.1034 N   0  0  0  0  0  0  0  0  0  0  0  0
   -4.6867   -1.1978   -0.1717 C   0  0  0  0  0  0  0  0  0  0  0  0
   -5.1011   -2.5004   -0.4139 C   0  0  0  0  0  0  0  0  0  0  0  0
   -6.4323   -2.6569   -0.7727 C   0  0  0  0  0  0  0  0  0  0  0  0
   -7.2767   -1.6064   -0.8743 N   0  0  0  0  0  0  0  0  0  0  0  0
   -6.9142   -0.4414   -0.2839 C   0  0  0  0  0  0  0  0  0  0  0  0
   -7.8590    0.9897   -0.6858 Cl  0  0  0  0  0  0  0  0  0  0  0  0
   -5.6376   -0.2718    0.1025 N   0  0  0  0  0  0  0  0  0  0  0  0
   -3.0540   -0.5295    1.4974 C   0  0  0  0  0  0  0  0  0  0  0  0
   -1.9000    0.4202    1.6397 C   0  0  0  0  0  0  0  0  0  0  0  0
   -0.0204    2.8466    0.5386 C   0  0  0  0  0  0  0  0  0  0  0  0
  1  2  1  0  0  0  0
  2  3  2  0  0  0  0
  3  4  1  0  0  0  0
  4  5  2  0  0  0  0
  5  6  1  0  0  0  0
  5 16  1  0  0  0  0
  6  7  2  0  0  0  0
  7  8  1  0  0  0  0
  8  9  2  0  0  0  0
  9 10  1  0  0  0  0
 10 11  1  0  0  0  0
 10 12  2  0  0  0  0
 12 13  1  0  0  0  0
 13 14  1  0  0  0  0
 13 15  2  0  0  0  0
 15  8  1  0  0  0  0
 16 17  1  0  0  0  0
 16 31  2  0  0  0  0
 17 18  1  0  0  0  0
 18 19  1  0  0  0  0
 19 20  1  0  0  0  0
 20 21  1  0  0  0  0
 21 22  1  0  0  0  0
 21 29  1  0  0  0  0
 22 23  2  0  0  0  0
 23 24  1  0  0  0  0
 24 25  2  0  0  0  0
 25 26  1  0  0  0  0
 26 27  1  0  0  0  0
 26 28  2  0  0  0  0
 28 22  1  0  0  0  0
 29 30  1  0  0  0  0
 30 18  1  0  0  0  0
 31  2  1  0  0  0  0
M  END
>  <zinc_id>
ZINC001229765454

>  <smiles>
Oc1cc(O)cc(/C=C/c2ccc(O)cc2OC2CCN(c3ccnc(Cl)n3)CC2)c1

$$$$
