
 OpenBabel05042123343D

 32 35  0  0  0  0  0  0  0  0999 V2000
   -2.2260   -5.0153   -1.2572 O   0  0  0  0  0  0  0  0  0  0  0  0
   -2.2603   -4.1319   -0.5860 C   0  0  0  0  0  0  0  0  0  0  0  0
   -3.3021   -3.7852    0.2681 C   0  0  0  0  0  0  0  0  0  0  0  0
   -3.2933   -2.5715    0.9455 C   0  0  0  0  0  0  0  0  0  0  0  0
   -2.2605   -1.6638    0.7406 C   0  0  0  0  0  0  0  0  0  0  0  0
   -2.4494   -0.2208    0.7929 C   0  0  0  0  0  0  0  0  0  0  0  0
   -3.5287    0.4001    1.1674 C   0  0  0  0  0  0  0  0  0  0  0  0
   -4.1988    1.4558    0.4049 C   0  0  0  0  0  0  0  0  0  0  0  0
   -4.3206    2.6944    0.9870 C   0  0  0  0  0  0  0  0  0  0  0  0
   -4.6788    3.7627    0.1860 C   0  0  0  0  0  0  0  0  0  0  0  0
   -4.4039    5.0545    0.6379 O   0  0  0  0  0  0  0  0  0  0  0  0
   -5.1050    3.5114   -1.1107 C   0  0  0  0  0  0  0  0  0  0  0  0
   -5.2344    2.2089   -1.5755 C   0  0  0  0  0  0  0  0  0  0  0  0
   -5.9145    1.9028   -2.7498 O   0  0  0  0  0  0  0  0  0  0  0  0
   -4.9181    1.1679   -0.7231 C   0  0  0  0  0  0  0  0  0  0  0  0
   -1.1041   -2.0829    0.0854 C   0  0  0  0  0  0  0  0  0  0  0  0
    0.0490   -1.4791    0.5476 O   0  0  0  0  0  0  0  0  0  0  0  0
    1.3481   -1.9873    0.4287 C   0  0  0  0  0  0  0  0  0  0  0  0
    2.1117   -0.8703    1.3826 C   0  0  1  0  0  0  0  0  0  0  0  0
    3.5954   -1.2681    0.8218 C   0  0  0  0  0  0  0  0  0  0  0  0
    3.8242   -1.0438   -0.4634 N   0  0  0  0  0  0  0  0  0  0  0  0
    5.2231   -1.0747   -0.7523 C   0  0  0  0  0  0  0  0  0  0  0  0
    5.7743    0.1913   -0.2254 C   0  0  0  0  0  0  0  0  0  0  0  0
    5.3339    1.3463   -0.8517 C   0  0  0  0  0  0  0  0  0  0  0  0
    5.5716    2.5639   -0.2795 C   0  0  0  0  0  0  0  0  0  0  0  0
    6.6841    2.6800    0.5403 C   0  0  0  0  0  0  0  0  0  0  0  0
    7.3452    1.5339    0.9420 C   0  0  0  0  0  0  0  0  0  0  0  0
    6.7340    0.3041    0.7319 C   0  0  0  0  0  0  0  0  0  0  0  0
    3.1045   -0.3692   -1.4228 C   0  0  0  0  0  0  0  0  0  0  0  0
    1.7144   -0.1540   -0.8442 C   0  0  0  0  0  0  0  0  0  0  0  0
    1.9194    0.2690    0.4039 O   0  0  0  0  0  0  0  0  0  0  0  0
   -1.1344   -3.3293   -0.5044 C   0  0  0  0  0  0  0  0  0  0  0  0
  1  2  1  0  0  0  0
  2  3  2  0  0  0  0
  3  4  1  0  0  0  0
  4  5  2  0  0  0  0
  5  6  1  0  0  0  0
  5 16  1  0  0  0  0
  6  7  2  0  0  0  0
  7  8  1  0  0  0  0
  8  9  2  0  0  0  0
  9 10  1  0  0  0  0
 10 11  1  0  0  0  0
 10 12  2  0  0  0  0
 12 13  1  0  0  0  0
 13 14  1  0  0  0  0
 13 15  2  0  0  0  0
 15  8  1  0  0  0  0
 16 17  1  0  0  0  0
 16 32  2  0  0  0  0
 17 18  1  0  0  0  0
 19 18  1  6  0  0  0
 19 20  1  0  0  0  0
 20 21  1  0  0  0  0
 21 22  1  0  0  0  0
 21 29  1  0  0  0  0
 22 23  1  0  0  0  0
 23 24  2  0  0  0  0
 24 25  1  0  0  0  0
 25 26  2  0  0  0  0
 26 27  1  0  0  0  0
 27 28  2  0  0  0  0
 28 23  1  0  0  0  0
 29 30  1  0  0  0  0
 30 31  1  0  0  0  0
 31 19  1  0  0  0  0
 32  2  1  0  0  0  0
M  END
>  <zinc_id>
ZINC001229765543

>  <smiles>
Oc1cc(O)cc(/C=C/c2ccc(O)cc2OC[C@H]2CN(Cc3ccccc3)CCO2)c1

$$$$
