
 OpenBabel05042123343D

 32 35  0  0  0  0  0  0  0  0999 V2000
    7.1270   -1.1216   -0.9196 C   0  0  0  0  0  0  0  0  0  0  0  0
    6.5414   -1.2944   -0.3822 C   0  0  0  0  0  0  0  0  0  0  0  0
    5.2311   -0.6247   -0.3990 C   0  0  0  0  0  0  0  0  0  0  0  0
    4.1383   -1.3021    0.1320 C   0  0  0  0  0  0  0  0  0  0  0  0
    4.3669   -1.9524    1.4633 C   0  0  0  0  0  0  0  0  0  0  0  0
    2.9685   -0.6784   -0.1488 N   0  0  0  0  0  0  0  0  0  0  0  0
    2.8335    0.3454   -0.9664 C   0  0  0  0  0  0  0  0  0  0  0  0
    3.8769    1.2140   -1.0579 N   0  0  0  0  0  0  0  0  0  0  0  0
    5.0975    0.6252   -0.9946 C   0  0  0  0  0  0  0  0  0  0  0  0
    6.0844    1.3532   -1.2578 O   0  0  0  0  0  0  0  0  0  0  0  0
    3.6819    2.6107   -0.6595 C   0  0  0  0  0  0  0  0  0  0  0  0
    2.9682    2.5989    0.6699 C   0  0  0  0  0  0  0  0  0  0  0  0
    1.8442    1.5991    0.7639 C   0  0  0  0  0  0  0  0  0  0  0  0
    1.5140    1.2733   -0.8207 C   0  0  2  0  0  0  0  0  0  0  0  0
    0.5725    0.0909   -0.5509 O   0  0  0  0  0  0  0  0  0  0  0  0
    0.0183   -0.1755    0.6340 C   0  0  0  0  0  0  0  0  0  0  0  0
    0.2880   -1.4405    1.1641 C   0  0  0  0  0  0  0  0  0  0  0  0
   -0.2942   -1.9453    2.2866 C   0  0  0  0  0  0  0  0  0  0  0  0
   -0.1225   -3.3137    2.5257 O   0  0  0  0  0  0  0  0  0  0  0  0
   -1.3976   -1.2558    2.7780 C   0  0  0  0  0  0  0  0  0  0  0  0
   -1.7073   -0.0276    2.1987 C   0  0  0  0  0  0  0  0  0  0  0  0
   -1.2660    0.2863    0.9140 C   0  0  0  0  0  0  0  0  0  0  0  0
   -2.1986    0.7199   -0.1399 C   0  0  0  0  0  0  0  0  0  0  0  0
   -3.0273   -0.0821   -0.7606 C   0  0  0  0  0  0  0  0  0  0  0  0
   -4.4782    0.0592   -0.8164 C   0  0  0  0  0  0  0  0  0  0  0  0
   -5.1549    0.2808   -2.0115 C   0  0  0  0  0  0  0  0  0  0  0  0
   -6.4783    0.6687   -2.0129 C   0  0  0  0  0  0  0  0  0  0  0  0
   -7.2441    0.8198   -3.1488 O   0  0  0  0  0  0  0  0  0  0  0  0
   -7.0635    0.8757   -0.7713 C   0  0  0  0  0  0  0  0  0  0  0  0
   -6.4594    0.4358    0.3981 C   0  0  0  0  0  0  0  0  0  0  0  0
   -6.9496    0.7849    1.6602 O   0  0  0  0  0  0  0  0  0  0  0  0
   -5.3112   -0.3281    0.2302 C   0  0  0  0  0  0  0  0  0  0  0  0
  1  2  1  0  0  0  0
  2  3  1  0  0  0  0
  3  4  2  0  0  0  0
  4  5  1  0  0  0  0
  4  6  1  0  0  0  0
  6  7  2  0  0  0  0
  7  8  1  0  0  0  0
  8  9  1  0  0  0  0
  8 11  1  0  0  0  0
  9 10  2  0  0  0  0
  9  3  1  0  0  0  0
 11 12  1  0  0  0  0
 12 13  1  0  0  0  0
 13 14  1  0  0  0  0
 14 15  1  1  0  0  0
 14  7  1  0  0  0  0
 15 16  1  0  0  0  0
 16 17  2  0  0  0  0
 17 18  1  0  0  0  0
 18 19  1  0  0  0  0
 18 20  2  0  0  0  0
 20 21  1  0  0  0  0
 21 22  2  0  0  0  0
 22 23  1  0  0  0  0
 22 16  1  0  0  0  0
 23 24  2  0  0  0  0
 24 25  1  0  0  0  0
 25 26  2  0  0  0  0
 26 27  1  0  0  0  0
 27 28  1  0  0  0  0
 27 29  2  0  0  0  0
 29 30  1  0  0  0  0
 30 31  1  0  0  0  0
 30 32  2  0  0  0  0
 32 25  1  0  0  0  0
M  END
>  <zinc_id>
ZINC001229765575

>  <smiles>
CCc1c(C)nc2n(c1=O)CCC[C@@H]2Oc1cc(O)ccc1/C=C/c1cc(O)cc(O)c1

$$$$
