
 OpenBabel05042123343D

 32 35  0  0  0  0  0  0  0  0999 V2000
   -6.8191    2.7359    0.7039 C   0  0  0  0  0  0  0  0  0  0  0  0
   -6.6028    1.5581    0.1878 C   0  0  0  0  0  0  0  0  0  0  0  0
   -5.1611    1.2513    0.0255 C   0  0  0  0  0  0  0  0  0  0  0  0
   -4.2094    2.2313    0.2899 C   0  0  0  0  0  0  0  0  0  0  0  0
   -4.5124    3.2335    1.3658 C   0  0  0  0  0  0  0  0  0  0  0  0
   -2.9358    1.8824   -0.0180 N   0  0  0  0  0  0  0  0  0  0  0  0
   -2.5730    0.6228   -0.3807 C   0  0  0  0  0  0  0  0  0  0  0  0
   -3.4038   -0.3494   -0.0690 N   0  0  0  0  0  0  0  0  0  0  0  0
   -4.7221   -0.0515   -0.1918 C   0  0  0  0  0  0  0  0  0  0  0  0
   -5.5454   -1.0043   -0.3404 O   0  0  0  0  0  0  0  0  0  0  0  0
   -3.1250   -1.6313    0.5053 C   0  0  0  0  0  0  0  0  0  0  0  0
   -2.0219   -1.4389    1.4918 C   0  0  0  0  0  0  0  0  0  0  0  0
   -1.3693   -0.1529    1.5365 C   0  0  0  0  0  0  0  0  0  0  0  0
   -0.9906    0.3476   -0.0155 C   0  0  1  0  0  0  0  0  0  0  0  0
   -0.9980   -1.0935   -0.6337 O   0  0  0  0  0  0  0  0  0  0  0  0
    0.1706   -1.8020   -0.4120 C   0  0  0  0  0  0  0  0  0  0  0  0
    0.1789   -3.1739   -0.1783 C   0  0  0  0  0  0  0  0  0  0  0  0
    1.3525   -3.8710    0.0722 C   0  0  0  0  0  0  0  0  0  0  0  0
    1.3460   -4.9663    0.9072 O   0  0  0  0  0  0  0  0  0  0  0  0
    2.4929   -3.3826   -0.5475 C   0  0  0  0  0  0  0  0  0  0  0  0
    2.3624   -2.1891   -1.2499 C   0  0  0  0  0  0  0  0  0  0  0  0
    1.3385   -1.2865   -0.9690 C   0  0  0  0  0  0  0  0  0  0  0  0
    1.6146    0.1110   -0.6062 C   0  0  0  0  0  0  0  0  0  0  0  0
    2.4409    0.9062   -1.2090 C   0  0  0  0  0  0  0  0  0  0  0  0
    3.6045    1.5674   -0.5972 C   0  0  0  0  0  0  0  0  0  0  0  0
    4.7687    1.4825   -1.3526 C   0  0  0  0  0  0  0  0  0  0  0  0
    6.0089    1.2280   -0.7885 C   0  0  0  0  0  0  0  0  0  0  0  0
    7.1172    1.2693   -1.6402 O   0  0  0  0  0  0  0  0  0  0  0  0
    6.1620    1.2962    0.5639 C   0  0  0  0  0  0  0  0  0  0  0  0
    5.0421    1.3424    1.3431 C   0  0  0  0  0  0  0  0  0  0  0  0
    5.1887    1.7331    2.6777 O   0  0  0  0  0  0  0  0  0  0  0  0
    3.8002    1.5942    0.7757 C   0  0  0  0  0  0  0  0  0  0  0  0
  1  2  1  0  0  0  0
  2  3  1  0  0  0  0
  3  4  2  0  0  0  0
  4  5  1  0  0  0  0
  4  6  1  0  0  0  0
  6  7  2  0  0  0  0
  7  8  1  0  0  0  0
  8  9  1  0  0  0  0
  8 11  1  0  0  0  0
  9 10  2  0  0  0  0
  9  3  1  0  0  0  0
 11 12  1  0  0  0  0
 12 13  1  0  0  0  0
 13 14  1  0  0  0  0
 14 15  1  6  0  0  0
 14  7  1  0  0  0  0
 15 16  1  0  0  0  0
 16 17  2  0  0  0  0
 17 18  1  0  0  0  0
 18 19  1  0  0  0  0
 18 20  2  0  0  0  0
 20 21  1  0  0  0  0
 21 22  2  0  0  0  0
 22 23  1  0  0  0  0
 22 16  1  0  0  0  0
 23 24  2  0  0  0  0
 24 25  1  0  0  0  0
 25 26  2  0  0  0  0
 26 27  1  0  0  0  0
 27 28  1  0  0  0  0
 27 29  2  0  0  0  0
 29 30  1  0  0  0  0
 30 31  1  0  0  0  0
 30 32  2  0  0  0  0
 32 25  1  0  0  0  0
M  END
>  <zinc_id>
ZINC001229765578

>  <smiles>
CCc1c(C)nc2n(c1=O)CCC[C@H]2Oc1cc(O)ccc1/C=C/c1cc(O)cc(O)c1

$$$$
