
 OpenBabel05042123343D

 30 31  0  0  0  0  0  0  0  0999 V2000
    5.5522    2.7921    0.0828 C   0  0  0  0  0  0  0  0  0  0  0  0
    4.1202    3.0530    0.0826 C   0  0  0  0  0  0  0  0  0  0  0  0
    3.3766    1.9172   -0.3606 O   0  0  0  0  0  0  0  0  0  0  0  0
    3.7159    0.6022   -0.0145 C   0  0  0  0  0  0  0  0  0  0  0  0
    4.9255    0.6301    0.4066 O   0  0  0  0  0  0  0  0  0  0  0  0
    3.6978   -0.4940   -1.1682 C   0  0  2  0  0  0  0  0  0  0  0  0
    2.5185    0.1771   -2.0626 C   0  0  0  0  0  0  0  0  0  0  0  0
    2.5759   -1.5956   -0.4834 C   0  0  2  0  0  0  0  0  0  0  0  0
    1.6100   -0.5531    0.1028 O   0  0  0  0  0  0  0  0  0  0  0  0
    0.3329   -1.1291    0.0251 C   0  0  0  0  0  0  0  0  0  0  0  0
    0.0872   -2.4770    0.2643 C   0  0  0  0  0  0  0  0  0  0  0  0
   -1.1025   -3.0867   -0.1297 C   0  0  0  0  0  0  0  0  0  0  0  0
   -1.3745   -4.3764    0.2669 O   0  0  0  0  0  0  0  0  0  0  0  0
   -1.6765   -2.5048   -1.2569 C   0  0  0  0  0  0  0  0  0  0  0  0
   -1.3171   -1.2205   -1.6584 C   0  0  0  0  0  0  0  0  0  0  0  0
   -0.5078   -0.4371   -0.8413 C   0  0  0  0  0  0  0  0  0  0  0  0
   -0.8972    0.8891   -0.3427 C   0  0  0  0  0  0  0  0  0  0  0  0
   -1.6921    1.1375    0.6522 C   0  0  0  0  0  0  0  0  0  0  0  0
   -3.0952    1.4908    0.6706 C   0  0  0  0  0  0  0  0  0  0  0  0
   -3.5653    2.7975    0.7463 C   0  0  0  0  0  0  0  0  0  0  0  0
   -4.9012    3.1112    0.5234 C   0  0  0  0  0  0  0  0  0  0  0  0
   -5.5038    4.2418    1.0860 O   0  0  0  0  0  0  0  0  0  0  0  0
   -5.7098    2.1039    0.0102 C   0  0  0  0  0  0  0  0  0  0  0  0
   -5.2870    0.7804    0.0183 C   0  0  0  0  0  0  0  0  0  0  0  0
   -5.9647   -0.2186   -0.6823 O   0  0  0  0  0  0  0  0  0  0  0  0
   -4.1138    0.5373    0.7219 C   0  0  0  0  0  0  0  0  0  0  0  0
    3.4250   -1.8710    0.8761 C   0  0  0  0  0  0  0  0  0  0  0  0
    3.1352   -1.0359    1.8441 F   0  0  0  0  0  0  0  0  0  0  0  0
    4.7029   -2.1381    0.5324 F   0  0  0  0  0  0  0  0  0  0  0  0
    2.9330   -3.1235    1.2597 F   0  0  0  0  0  0  0  0  0  0  0  0
  1  2  1  0  0  0  0
  2  3  1  0  0  0  0
  3  4  1  0  0  0  0
  4  5  2  0  0  0  0
  6  4  1  0  0  0  0
  6  7  1  6  0  0  0
  6  8  1  0  0  0  0
  8  9  1  1  0  0  0
  8 27  1  0  0  0  0
  9 10  1  0  0  0  0
 10 11  2  0  0  0  0
 11 12  1  0  0  0  0
 12 13  1  0  0  0  0
 12 14  2  0  0  0  0
 14 15  1  0  0  0  0
 15 16  2  0  0  0  0
 16 17  1  0  0  0  0
 16 10  1  0  0  0  0
 17 18  2  0  0  0  0
 18 19  1  0  0  0  0
 19 20  2  0  0  0  0
 20 21  1  0  0  0  0
 21 22  1  0  0  0  0
 21 23  2  0  0  0  0
 23 24  1  0  0  0  0
 24 25  1  0  0  0  0
 24 26  2  0  0  0  0
 26 19  1  0  0  0  0
 27 28  1  0  0  0  0
 27 29  1  0  0  0  0
 27 30  1  0  0  0  0
M  END
>  <zinc_id>
ZINC001229766125

>  <smiles>
CCOC(=O)[C@H](C)[C@H](Oc1cc(O)ccc1/C=C/c1cc(O)cc(O)c1)C(F)(F)F

$$$$
