
 OpenBabel05042123343D

 30 31  0  0  0  0  0  0  0  0999 V2000
   -7.1259   -1.8178   -0.5786 C   0  0  0  0  0  0  0  0  0  0  0  0
   -6.6522   -1.9515   -1.3567 C   0  0  0  0  0  0  0  0  0  0  0  0
   -5.2983   -1.5053   -1.4430 O   0  0  0  0  0  0  0  0  0  0  0  0
   -4.4887   -1.5984   -0.3784 C   0  0  0  0  0  0  0  0  0  0  0  0
   -4.8568   -2.3841    0.5528 O   0  0  0  0  0  0  0  0  0  0  0  0
   -2.8948   -1.7457   -0.5053 C   0  0  1  0  0  0  0  0  0  0  0  0
   -2.8482   -1.7874   -2.1471 C   0  0  0  0  0  0  0  0  0  0  0  0
   -2.6310   -0.0214   -0.5113 C   0  0  2  0  0  0  0  0  0  0  0  0
   -1.1055   -0.2097   -0.2813 O   0  0  0  0  0  0  0  0  0  0  0  0
   -0.4183    0.9828   -0.4923 C   0  0  0  0  0  0  0  0  0  0  0  0
   -0.8148    1.9418   -1.3890 C   0  0  0  0  0  0  0  0  0  0  0  0
   -0.2394    3.1980   -1.3294 C   0  0  0  0  0  0  0  0  0  0  0  0
   -0.9007    4.2911   -1.8742 O   0  0  0  0  0  0  0  0  0  0  0  0
    0.7057    3.4713   -0.3558 C   0  0  0  0  0  0  0  0  0  0  0  0
    1.1461    2.4901    0.5236 C   0  0  0  0  0  0  0  0  0  0  0  0
    0.7306    1.1952    0.2397 C   0  0  0  0  0  0  0  0  0  0  0  0
    1.5152    0.0170    0.6332 C   0  0  0  0  0  0  0  0  0  0  0  0
    2.5953   -0.3689   -0.0006 C   0  0  0  0  0  0  0  0  0  0  0  0
    3.8812   -0.6512    0.6219 C   0  0  0  0  0  0  0  0  0  0  0  0
    4.6234   -1.7562    0.2222 C   0  0  0  0  0  0  0  0  0  0  0  0
    6.0106   -1.7198    0.1690 C   0  0  0  0  0  0  0  0  0  0  0  0
    6.7617   -2.8514   -0.1173 O   0  0  0  0  0  0  0  0  0  0  0  0
    6.6830   -0.5419    0.4219 C   0  0  0  0  0  0  0  0  0  0  0  0
    5.9931    0.4559    1.1000 C   0  0  0  0  0  0  0  0  0  0  0  0
    6.6551    1.6763    1.2665 O   0  0  0  0  0  0  0  0  0  0  0  0
    4.6347    0.3165    1.2756 C   0  0  0  0  0  0  0  0  0  0  0  0
   -2.8936    0.1400    1.1190 C   0  0  0  0  0  0  0  0  0  0  0  0
   -2.3253   -0.9252    1.7062 F   0  0  0  0  0  0  0  0  0  0  0  0
   -2.2287    1.3219    1.3314 F   0  0  0  0  0  0  0  0  0  0  0  0
   -4.2135    0.3380    1.2780 F   0  0  0  0  0  0  0  0  0  0  0  0
  1  2  1  0  0  0  0
  2  3  1  0  0  0  0
  3  4  1  0  0  0  0
  4  5  2  0  0  0  0
  6  4  1  0  0  0  0
  6  7  1  6  0  0  0
  6  8  1  0  0  0  0
  8  9  1  1  0  0  0
  8 27  1  0  0  0  0
  9 10  1  0  0  0  0
 10 11  2  0  0  0  0
 11 12  1  0  0  0  0
 12 13  1  0  0  0  0
 12 14  2  0  0  0  0
 14 15  1  0  0  0  0
 15 16  2  0  0  0  0
 16 17  1  0  0  0  0
 16 10  1  0  0  0  0
 17 18  2  0  0  0  0
 18 19  1  0  0  0  0
 19 20  2  0  0  0  0
 20 21  1  0  0  0  0
 21 22  1  0  0  0  0
 21 23  2  0  0  0  0
 23 24  1  0  0  0  0
 24 25  1  0  0  0  0
 24 26  2  0  0  0  0
 26 19  1  0  0  0  0
 27 28  1  0  0  0  0
 27 29  1  0  0  0  0
 27 30  1  0  0  0  0
M  END
>  <zinc_id>
ZINC001229766127

>  <smiles>
CCOC(=O)[C@@H](C)[C@H](Oc1cc(O)ccc1/C=C/c1cc(O)cc(O)c1)C(F)(F)F

$$$$
