
 OpenBabel05042123343D

 31 34  0  0  0  0  0  0  0  0999 V2000
   -2.7367   -1.5140   -0.9085 C   0  0  0  0  0  0  0  0  0  0  0  0
   -2.8992   -1.3626   -0.5906 O   0  0  0  0  0  0  0  0  0  0  0  0
   -3.1694   -2.3048    0.5836 C   0  0  1  0  0  0  0  0  0  0  0  0
   -2.2234   -1.7017    1.6123 O   0  0  0  0  0  0  0  0  0  0  0  0
   -2.1893   -0.3889    0.8983 C   0  0  2  0  0  0  0  0  0  0  0  0
   -1.3361    0.3213    2.1112 C   0  0  0  0  0  0  0  0  0  0  0  0
   -0.0100    0.3074    1.5780 O   0  0  0  0  0  0  0  0  0  0  0  0
    0.1794    0.6333    0.2337 C   0  0  0  0  0  0  0  0  0  0  0  0
    0.1933    1.9449   -0.2291 C   0  0  0  0  0  0  0  0  0  0  0  0
    0.5168    2.2456   -1.5471 C   0  0  0  0  0  0  0  0  0  0  0  0
    1.3293    3.3313   -1.8885 O   0  0  0  0  0  0  0  0  0  0  0  0
    0.4779    1.1957   -2.4582 C   0  0  0  0  0  0  0  0  0  0  0  0
    0.4370   -0.1061   -1.9708 C   0  0  0  0  0  0  0  0  0  0  0  0
    0.5654   -0.3963   -0.6200 C   0  0  0  0  0  0  0  0  0  0  0  0
    1.5081   -1.3951   -0.1033 C   0  0  0  0  0  0  0  0  0  0  0  0
    2.5951   -1.8042   -0.6742 C   0  0  0  0  0  0  0  0  0  0  0  0
    3.9598   -1.3577   -0.3450 C   0  0  0  0  0  0  0  0  0  0  0  0
    4.5447   -1.5757    0.8687 C   0  0  0  0  0  0  0  0  0  0  0  0
    5.6403   -0.8078    1.2228 C   0  0  0  0  0  0  0  0  0  0  0  0
    6.0284   -0.8808    2.5612 O   0  0  0  0  0  0  0  0  0  0  0  0
    5.9118    0.3248    0.4663 C   0  0  0  0  0  0  0  0  0  0  0  0
    5.3497    0.5157   -0.7730 C   0  0  0  0  0  0  0  0  0  0  0  0
    5.6967    1.5599   -1.6143 O   0  0  0  0  0  0  0  0  0  0  0  0
    4.6409   -0.5725   -1.2698 C   0  0  0  0  0  0  0  0  0  0  0  0
   -3.7000    0.0296    1.5577 C   0  0  1  0  0  0  0  0  0  0  0  0
   -4.1249    0.6786    0.2780 O   0  0  0  0  0  0  0  0  0  0  0  0
   -5.3801    0.2374    0.0810 C   0  0  0  0  0  0  0  0  0  0  0  0
   -6.4509    0.6165    1.0122 C   0  0  0  0  0  0  0  0  0  0  0  0
   -5.7816    0.6911   -1.3097 C   0  0  0  0  0  0  0  0  0  0  0  0
   -5.0894   -1.0785   -0.0375 O   0  0  0  0  0  0  0  0  0  0  0  0
   -4.4836   -1.4392    1.2745 C   0  0  1  0  0  0  0  0  0  0  0  0
  1  2  1  0  0  0  0
  3  2  1  6  0  0  0
  3  4  1  0  0  0  0
  4  5  1  0  0  0  0
  5  6  1  1  0  0  0
  5 25  1  0  0  0  0
  6  7  1  0  0  0  0
  7  8  1  0  0  0  0
  8  9  2  0  0  0  0
  9 10  1  0  0  0  0
 10 11  1  0  0  0  0
 10 12  2  0  0  0  0
 12 13  1  0  0  0  0
 13 14  2  0  0  0  0
 14 15  1  0  0  0  0
 14  8  1  0  0  0  0
 15 16  2  0  0  0  0
 16 17  1  0  0  0  0
 17 18  2  0  0  0  0
 18 19  1  0  0  0  0
 19 20  1  0  0  0  0
 19 21  2  0  0  0  0
 21 22  1  0  0  0  0
 22 23  1  0  0  0  0
 22 24  2  0  0  0  0
 24 17  1  0  0  0  0
 25 26  1  6  0  0  0
 26 27  1  0  0  0  0
 27 28  1  0  0  0  0
 27 29  1  0  0  0  0
 27 30  1  0  0  0  0
 31 30  1  6  0  0  0
 31  3  1  0  0  0  0
 31 25  1  0  0  0  0
M  END
>  <zinc_id>
ZINC001229766131

>  <smiles>
CO[C@H]1O[C@H](COc2cc(O)ccc2/C=C/c2cc(O)cc(O)c2)[C@H]2OC(C)(C)O[C@@H]12

$$$$
