
 OpenBabel05042123343D

 31 34  0  0  0  0  0  0  0  0999 V2000
   -4.0101    3.0117   -0.1761 C   0  0  0  0  0  0  0  0  0  0  0  0
   -4.4368    2.0359   -0.6885 O   0  0  0  0  0  0  0  0  0  0  0  0
   -3.9333    0.9202    0.2738 C   0  0  2  0  0  0  0  0  0  0  0  0
   -2.5980    0.7728   -0.5186 O   0  0  0  0  0  0  0  0  0  0  0  0
   -2.4415   -0.2286    0.6275 C   0  0  2  0  0  0  0  0  0  0  0  0
   -1.0260   -0.8879    0.0524 C   0  0  0  0  0  0  0  0  0  0  0  0
   -0.3921    0.0327   -0.7330 O   0  0  0  0  0  0  0  0  0  0  0  0
    0.3039    1.1542   -0.3509 C   0  0  0  0  0  0  0  0  0  0  0  0
    0.0292    2.3852   -0.9130 C   0  0  0  0  0  0  0  0  0  0  0  0
    0.5059    3.5511   -0.3436 C   0  0  0  0  0  0  0  0  0  0  0  0
   -0.1323    4.7800   -0.4854 O   0  0  0  0  0  0  0  0  0  0  0  0
    1.5497    3.4146    0.5636 C   0  0  0  0  0  0  0  0  0  0  0  0
    1.6153    2.2280    1.2844 C   0  0  0  0  0  0  0  0  0  0  0  0
    0.9976    1.0657    0.8357 C   0  0  0  0  0  0  0  0  0  0  0  0
    1.6917   -0.2055    1.0910 C   0  0  0  0  0  0  0  0  0  0  0  0
    2.4060   -0.8528    0.2199 C   0  0  0  0  0  0  0  0  0  0  0  0
    3.8484   -1.1283    0.3311 C   0  0  0  0  0  0  0  0  0  0  0  0
    4.3524   -2.4205    0.2291 C   0  0  0  0  0  0  0  0  0  0  0  0
    5.6967   -2.5969   -0.0830 C   0  0  0  0  0  0  0  0  0  0  0  0
    6.3744   -3.7766    0.1931 O   0  0  0  0  0  0  0  0  0  0  0  0
    6.3980   -1.5218   -0.6008 C   0  0  0  0  0  0  0  0  0  0  0  0
    5.8902   -0.2518   -0.6039 C   0  0  0  0  0  0  0  0  0  0  0  0
    6.6961    0.7992   -1.0184 O   0  0  0  0  0  0  0  0  0  0  0  0
    4.7642   -0.0937    0.1679 C   0  0  0  0  0  0  0  0  0  0  0  0
   -3.3567   -1.4391   -0.2174 C   0  0  1  0  0  0  0  0  0  0  0  0
   -4.1370   -1.7899    1.0336 O   0  0  0  0  0  0  0  0  0  0  0  0
   -5.2901   -2.1120    0.3098 C   0  0  0  0  0  0  0  0  0  0  0  0
   -4.9532   -2.7604   -1.0213 C   0  0  0  0  0  0  0  0  0  0  0  0
   -6.2673   -2.9630    1.0038 C   0  0  0  0  0  0  0  0  0  0  0  0
   -5.5973   -0.7836    0.2081 O   0  0  0  0  0  0  0  0  0  0  0  0
   -4.5480   -0.3389   -0.7771 C   0  0  1  0  0  0  0  0  0  0  0  0
  1  2  1  0  0  0  0
  3  2  1  6  0  0  0
  3  4  1  0  0  0  0
  4  5  1  0  0  0  0
  5  6  1  6  0  0  0
  5 25  1  0  0  0  0
  6  7  1  0  0  0  0
  7  8  1  0  0  0  0
  8  9  2  0  0  0  0
  9 10  1  0  0  0  0
 10 11  1  0  0  0  0
 10 12  2  0  0  0  0
 12 13  1  0  0  0  0
 13 14  2  0  0  0  0
 14 15  1  0  0  0  0
 14  8  1  0  0  0  0
 15 16  2  0  0  0  0
 16 17  1  0  0  0  0
 17 18  2  0  0  0  0
 18 19  1  0  0  0  0
 19 20  1  0  0  0  0
 19 21  2  0  0  0  0
 21 22  1  0  0  0  0
 22 23  1  0  0  0  0
 22 24  2  0  0  0  0
 24 17  1  0  0  0  0
 25 26  1  1  0  0  0
 26 27  1  0  0  0  0
 27 28  1  0  0  0  0
 27 29  1  0  0  0  0
 27 30  1  0  0  0  0
 31 30  1  1  0  0  0
 31  3  1  0  0  0  0
 31 25  1  0  0  0  0
M  END
>  <zinc_id>
ZINC001229766133

>  <smiles>
CO[C@@H]1O[C@H](COc2cc(O)ccc2/C=C/c2cc(O)cc(O)c2)[C@H]2OC(C)(C)O[C@@H]12

$$$$
