
 OpenBabel05042123343D

 31 34  0  0  0  0  0  0  0  0999 V2000
   -1.2066   -2.0404    3.3877 O   0  0  0  0  0  0  0  0  0  0  0  0
   -0.8783   -1.8707    2.0388 C   0  0  0  0  0  0  0  0  0  0  0  0
   -1.6502   -2.5083    1.0769 C   0  0  0  0  0  0  0  0  0  0  0  0
   -1.9646   -1.8797   -0.1213 C   0  0  0  0  0  0  0  0  0  0  0  0
   -1.5219   -0.5912   -0.3952 C   0  0  0  0  0  0  0  0  0  0  0  0
   -2.4231    0.3981   -1.0055 C   0  0  0  0  0  0  0  0  0  0  0  0
   -3.2532    1.1346   -0.3057 C   0  0  0  0  0  0  0  0  0  0  0  0
   -4.6882    1.2505   -0.5933 C   0  0  0  0  0  0  0  0  0  0  0  0
   -5.2331    2.4731   -0.9659 C   0  0  0  0  0  0  0  0  0  0  0  0
   -6.4610    2.8995   -0.4966 C   0  0  0  0  0  0  0  0  0  0  0  0
   -6.8589    4.2318   -0.5191 O   0  0  0  0  0  0  0  0  0  0  0  0
   -7.2924    1.9899    0.1346 C   0  0  0  0  0  0  0  0  0  0  0  0
   -6.8468    0.7056    0.3811 C   0  0  0  0  0  0  0  0  0  0  0  0
   -7.6970   -0.3511    0.6730 O   0  0  0  0  0  0  0  0  0  0  0  0
   -5.5159    0.4514    0.1870 C   0  0  0  0  0  0  0  0  0  0  0  0
   -0.5255   -0.0992    0.4375 C   0  0  0  0  0  0  0  0  0  0  0  0
    0.2388    0.9412   -0.0957 O   0  0  0  0  0  0  0  0  0  0  0  0
    1.5803    0.6164   -0.4266 C   0  0  0  0  0  0  0  0  0  0  0  0
    1.6569   -0.4419   -1.5067 C   0  0  0  0  0  0  0  0  0  0  0  0
    3.1195   -0.5917   -1.8653 C   0  0  0  0  0  0  0  0  0  0  0  0
    3.7824   -1.1253   -0.6802 N   0  0  0  0  0  0  0  0  0  0  0  0
    5.1382   -0.7498   -0.4717 C   0  0  0  0  0  0  0  0  0  0  0  0
    5.7962   -1.1328    0.6886 C   0  0  0  0  0  0  0  0  0  0  0  0
    7.1230   -0.8062    0.8892 C   0  0  0  0  0  0  0  0  0  0  0  0
    7.8409   -0.3953   -0.2091 C   0  0  0  0  0  0  0  0  0  0  0  0
    9.5785   -0.4675   -0.2548 Cl  0  0  0  0  0  0  0  0  0  0  0  0
    7.1812    0.0463   -1.2801 N   0  0  0  0  0  0  0  0  0  0  0  0
    5.8654   -0.0905   -1.4057 N   0  0  0  0  0  0  0  0  0  0  0  0
    2.9374   -1.2868    0.4992 C   0  0  0  0  0  0  0  0  0  0  0  0
    2.3260    0.0671    0.7824 C   0  0  0  0  0  0  0  0  0  0  0  0
   -0.1478   -0.7773    1.5905 C   0  0  0  0  0  0  0  0  0  0  0  0
  1  2  1  0  0  0  0
  2  3  2  0  0  0  0
  3  4  1  0  0  0  0
  4  5  2  0  0  0  0
  5  6  1  0  0  0  0
  5 16  1  0  0  0  0
  6  7  2  0  0  0  0
  7  8  1  0  0  0  0
  8  9  2  0  0  0  0
  9 10  1  0  0  0  0
 10 11  1  0  0  0  0
 10 12  2  0  0  0  0
 12 13  1  0  0  0  0
 13 14  1  0  0  0  0
 13 15  2  0  0  0  0
 15  8  1  0  0  0  0
 16 17  1  0  0  0  0
 16 31  2  0  0  0  0
 17 18  1  0  0  0  0
 18 19  1  0  0  0  0
 19 20  1  0  0  0  0
 20 21  1  0  0  0  0
 21 22  1  0  0  0  0
 21 29  1  0  0  0  0
 22 23  2  0  0  0  0
 23 24  1  0  0  0  0
 24 25  2  0  0  0  0
 25 26  1  0  0  0  0
 25 27  1  0  0  0  0
 27 28  2  0  0  0  0
 28 22  1  0  0  0  0
 29 30  1  0  0  0  0
 30 18  1  0  0  0  0
 31  2  1  0  0  0  0
M  END
>  <zinc_id>
ZINC001229766549

>  <smiles>
Oc1cc(O)cc(/C=C/c2ccc(O)cc2OC2CCN(c3ccc(Cl)nn3)CC2)c1

$$$$
