
 OpenBabel05042123343D

 32 34  0  0  0  0  0  0  0  0999 V2000
   -7.7588    1.1680   -1.4663 C   0  0  0  0  0  0  0  0  0  0  0  0
   -7.0855    1.2062   -0.8263 C   0  0  0  0  0  0  0  0  0  0  0  0
   -7.4128    0.3486    0.3892 C   0  0  0  0  0  0  0  0  0  0  0  0
   -6.8235    2.6225   -0.3276 C   0  0  0  0  0  0  0  0  0  0  0  0
   -5.8433    0.7492   -1.3557 O   0  0  0  0  0  0  0  0  0  0  0  0
   -4.8468    0.2973   -0.4869 C   0  0  0  0  0  0  0  0  0  0  0  0
   -5.2422   -0.4446    0.4627 O   0  0  0  0  0  0  0  0  0  0  0  0
   -3.5817   -0.0763   -1.0399 N   0  0  0  0  0  0  0  0  0  0  0  0
   -3.4375   -1.5164   -1.2355 C   0  0  0  0  0  0  0  0  0  0  0  0
   -3.1711   -2.1228    0.1257 C   0  0  0  0  0  0  0  0  0  0  0  0
   -1.7832   -2.2166    0.3190 O   0  0  0  0  0  0  0  0  0  0  0  0
   -1.2409   -1.1633   -0.4365 C   0  0  0  0  0  0  0  0  0  0  0  0
   -1.7667    0.1440    0.4610 C   0  0  1  0  0  0  0  0  0  0  0  0
   -0.4148    0.8857    0.2325 O   0  0  0  0  0  0  0  0  0  0  0  0
    0.5266    0.4087    1.1232 C   0  0  0  0  0  0  0  0  0  0  0  0
    0.3186   -0.6499    2.0023 C   0  0  0  0  0  0  0  0  0  0  0  0
    1.3470   -1.1647    2.7859 C   0  0  0  0  0  0  0  0  0  0  0  0
    1.6349   -2.5360    2.7896 O   0  0  0  0  0  0  0  0  0  0  0  0
    2.3825   -0.2660    3.0308 C   0  0  0  0  0  0  0  0  0  0  0  0
    2.4591    0.9296    2.3187 C   0  0  0  0  0  0  0  0  0  0  0  0
    1.7291    1.1069    1.1459 C   0  0  0  0  0  0  0  0  0  0  0  0
    2.3596    1.3584   -0.1571 C   0  0  0  0  0  0  0  0  0  0  0  0
    2.8103    0.4808   -0.9945 C   0  0  0  0  0  0  0  0  0  0  0  0
    4.1907    0.0627   -1.2124 C   0  0  0  0  0  0  0  0  0  0  0  0
    5.0651    0.7256   -2.0648 C   0  0  0  0  0  0  0  0  0  0  0  0
    6.4407    0.5839   -1.9154 C   0  0  0  0  0  0  0  0  0  0  0  0
    7.3495    0.9628   -2.8886 O   0  0  0  0  0  0  0  0  0  0  0  0
    6.9229   -0.0210   -0.7606 C   0  0  0  0  0  0  0  0  0  0  0  0
    6.0680   -0.7621    0.0457 C   0  0  0  0  0  0  0  0  0  0  0  0
    6.4750   -1.2193    1.2872 O   0  0  0  0  0  0  0  0  0  0  0  0
    4.7911   -0.9519   -0.4675 C   0  0  0  0  0  0  0  0  0  0  0  0
   -2.4621    0.8497   -0.8837 C   0  0  0  0  0  0  0  0  0  0  0  0
  1  2  1  0  0  0  0
  2  3  1  0  0  0  0
  2  4  1  0  0  0  0
  2  5  1  0  0  0  0
  5  6  1  0  0  0  0
  6  7  2  0  0  0  0
  6  8  1  0  0  0  0
  8  9  1  0  0  0  0
  9 10  1  0  0  0  0
 10 11  1  0  0  0  0
 11 12  1  0  0  0  0
 12 13  1  0  0  0  0
 13 14  1  6  0  0  0
 13 32  1  0  0  0  0
 14 15  1  0  0  0  0
 15 16  2  0  0  0  0
 16 17  1  0  0  0  0
 17 18  1  0  0  0  0
 17 19  2  0  0  0  0
 19 20  1  0  0  0  0
 20 21  2  0  0  0  0
 21 22  1  0  0  0  0
 21 15  1  0  0  0  0
 22 23  2  0  0  0  0
 23 24  1  0  0  0  0
 24 25  2  0  0  0  0
 25 26  1  0  0  0  0
 26 27  1  0  0  0  0
 26 28  2  0  0  0  0
 28 29  1  0  0  0  0
 29 30  1  0  0  0  0
 29 31  2  0  0  0  0
 31 24  1  0  0  0  0
 32  8  1  0  0  0  0
M  END
>  <zinc_id>
ZINC001229766605

>  <smiles>
CC(C)(C)OC(=O)N1CCOC[C@@H](Oc2cc(O)ccc2/C=C/c2cc(O)cc(O)c2)C1

$$$$
