
 OpenBabel05042123343D

 32 34  0  0  0  0  0  0  0  0999 V2000
    6.7177    0.3794    2.6398 C   0  0  0  0  0  0  0  0  0  0  0  0
    6.0333    0.5224    3.0419 C   0  0  0  0  0  0  0  0  0  0  0  0
    6.2040    0.2903    4.5359 C   0  0  0  0  0  0  0  0  0  0  0  0
    5.5656    1.9639    2.8943 C   0  0  0  0  0  0  0  0  0  0  0  0
    4.9619   -0.2843    2.5632 O   0  0  0  0  0  0  0  0  0  0  0  0
    4.1741    0.1823    1.5055 C   0  0  0  0  0  0  0  0  0  0  0  0
    4.6384    1.1820    0.8774 O   0  0  0  0  0  0  0  0  0  0  0  0
    3.4906   -0.7774    0.6904 N   0  0  0  0  0  0  0  0  0  0  0  0
    4.3874   -1.3474   -0.3113 C   0  0  0  0  0  0  0  0  0  0  0  0
    3.8638   -1.1554   -1.7082 C   0  0  0  0  0  0  0  0  0  0  0  0
    3.4369    0.1353   -1.9660 O   0  0  0  0  0  0  0  0  0  0  0  0
    2.3767    0.5203   -1.1532 C   0  0  0  0  0  0  0  0  0  0  0  0
    1.5906   -0.9236   -0.8266 C   0  0  2  0  0  0  0  0  0  0  0  0
    0.2465   -0.1715   -0.5348 O   0  0  0  0  0  0  0  0  0  0  0  0
   -0.3531    0.3066   -1.6970 C   0  0  0  0  0  0  0  0  0  0  0  0
    0.3086    0.3891   -2.9083 C   0  0  0  0  0  0  0  0  0  0  0  0
   -0.2422    1.0573   -3.9732 C   0  0  0  0  0  0  0  0  0  0  0  0
    0.4113    0.9613   -5.2006 O   0  0  0  0  0  0  0  0  0  0  0  0
   -1.5484    1.4665   -3.8602 C   0  0  0  0  0  0  0  0  0  0  0  0
   -2.2636    1.2300   -2.6960 C   0  0  0  0  0  0  0  0  0  0  0  0
   -1.7171    0.4845   -1.6585 C   0  0  0  0  0  0  0  0  0  0  0  0
   -2.6084   -0.3603   -0.8568 C   0  0  0  0  0  0  0  0  0  0  0  0
   -3.0825   -0.0039    0.3178 C   0  0  0  0  0  0  0  0  0  0  0  0
   -4.4480   -0.3246    0.7177 C   0  0  0  0  0  0  0  0  0  0  0  0
   -5.3608   -0.9175   -0.1416 C   0  0  0  0  0  0  0  0  0  0  0  0
   -6.6799   -0.9969    0.2139 C   0  0  0  0  0  0  0  0  0  0  0  0
   -7.5836   -1.4121   -0.7637 O   0  0  0  0  0  0  0  0  0  0  0  0
   -7.0893   -0.3943    1.3779 C   0  0  0  0  0  0  0  0  0  0  0  0
   -6.1427   -0.1788    2.3625 C   0  0  0  0  0  0  0  0  0  0  0  0
   -6.5267   -0.0761    3.6948 O   0  0  0  0  0  0  0  0  0  0  0  0
   -4.7957   -0.1964    2.0353 C   0  0  0  0  0  0  0  0  0  0  0  0
    2.0347   -0.8445    0.7876 C   0  0  0  0  0  0  0  0  0  0  0  0
  1  2  1  0  0  0  0
  2  3  1  0  0  0  0
  2  4  1  0  0  0  0
  2  5  1  0  0  0  0
  5  6  1  0  0  0  0
  6  7  2  0  0  0  0
  6  8  1  0  0  0  0
  8  9  1  0  0  0  0
  9 10  1  0  0  0  0
 10 11  1  0  0  0  0
 11 12  1  0  0  0  0
 12 13  1  0  0  0  0
 13 14  1  1  0  0  0
 13 32  1  0  0  0  0
 14 15  1  0  0  0  0
 15 16  2  0  0  0  0
 16 17  1  0  0  0  0
 17 18  1  0  0  0  0
 17 19  2  0  0  0  0
 19 20  1  0  0  0  0
 20 21  2  0  0  0  0
 21 22  1  0  0  0  0
 21 15  1  0  0  0  0
 22 23  2  0  0  0  0
 23 24  1  0  0  0  0
 24 25  2  0  0  0  0
 25 26  1  0  0  0  0
 26 27  1  0  0  0  0
 26 28  2  0  0  0  0
 28 29  1  0  0  0  0
 29 30  1  0  0  0  0
 29 31  2  0  0  0  0
 31 24  1  0  0  0  0
 32  8  1  0  0  0  0
M  END
>  <zinc_id>
ZINC001229766607

>  <smiles>
CC(C)(C)OC(=O)N1CCOC[C@H](Oc2cc(O)ccc2/C=C/c2cc(O)cc(O)c2)C1

$$$$
