
 OpenBabel05042123343D

 32 33  0  0  0  0  0  0  0  0999 V2000
    3.1086    4.8184   -0.2804 C   0  0  0  0  0  0  0  0  0  0  0  0
    3.8787    4.0866   -0.1438 C   0  0  0  0  0  0  0  0  0  0  0  0
    3.7180    2.8236    0.5449 C   0  0  0  0  0  0  0  0  0  0  0  0
    4.6394    2.1871    1.1075 O   0  0  0  0  0  0  0  0  0  0  0  0
    2.5759    2.0895    0.2703 O   0  0  0  0  0  0  0  0  0  0  0  0
    2.0764    1.0739    0.9990 C   0  0  0  0  0  0  0  0  0  0  0  0
    2.3472   -0.3896    0.3090 C   0  0  2  0  0  0  0  0  0  0  0  0
    3.1726    0.1974   -0.9936 C   0  0  0  0  0  0  0  0  0  0  0  0
    4.2339   -0.7303   -1.1815 O   0  0  0  0  0  0  0  0  0  0  0  0
    3.9983   -2.1046   -1.1488 C   0  0  0  0  0  0  0  0  0  0  0  0
    2.8522   -2.4652   -1.5466 O   0  0  0  0  0  0  0  0  0  0  0  0
    5.0524   -3.0715   -0.8151 C   0  0  0  0  0  0  0  0  0  0  0  0
    5.9428   -2.6454    0.0840 C   0  0  0  0  0  0  0  0  0  0  0  0
    4.5889   -4.4777   -0.5877 C   0  0  0  0  0  0  0  0  0  0  0  0
    1.0378   -0.4237   -0.4907 O   0  0  0  0  0  0  0  0  0  0  0  0
    0.0370    0.4413   -0.2947 C   0  0  0  0  0  0  0  0  0  0  0  0
   -0.0819    1.5566   -1.1240 C   0  0  0  0  0  0  0  0  0  0  0  0
   -0.8927    2.6196   -0.7396 C   0  0  0  0  0  0  0  0  0  0  0  0
   -1.3096    3.4705   -1.7576 O   0  0  0  0  0  0  0  0  0  0  0  0
   -1.6585    2.4506    0.4093 C   0  0  0  0  0  0  0  0  0  0  0  0
   -1.5615    1.2791    1.1551 C   0  0  0  0  0  0  0  0  0  0  0  0
   -0.9973    0.1354    0.5917 C   0  0  0  0  0  0  0  0  0  0  0  0
   -1.5160   -1.1705    0.5785 C   0  0  0  0  0  0  0  0  0  0  0  0
   -2.4474   -1.9118    0.8735 C   0  0  0  0  0  0  0  0  0  0  0  0
   -3.8833   -1.9475    0.6317 C   0  0  0  0  0  0  0  0  0  0  0  0
   -4.7665   -1.1493    1.3626 C   0  0  0  0  0  0  0  0  0  0  0  0
   -5.6411   -0.2745    0.7263 C   0  0  0  0  0  0  0  0  0  0  0  0
   -6.0400    0.9374    1.2680 O   0  0  0  0  0  0  0  0  0  0  0  0
   -6.0993   -0.6774   -0.5226 C   0  0  0  0  0  0  0  0  0  0  0  0
   -5.5973   -1.8437   -1.0891 C   0  0  0  0  0  0  0  0  0  0  0  0
   -6.3694   -2.5376   -2.0273 O   0  0  0  0  0  0  0  0  0  0  0  0
   -4.3983   -2.3471   -0.5987 C   0  0  0  0  0  0  0  0  0  0  0  0
  1  2  2  0  0  0  0
  2  3  1  0  0  0  0
  3  4  2  0  0  0  0
  3  5  1  0  0  0  0
  5  6  1  0  0  0  0
  7  6  1  1  0  0  0
  7  8  1  0  0  0  0
  7 15  1  0  0  0  0
  8  9  1  0  0  0  0
  9 10  1  0  0  0  0
 10 11  2  0  0  0  0
 10 12  1  0  0  0  0
 12 13  2  0  0  0  0
 12 14  1  0  0  0  0
 15 16  1  0  0  0  0
 16 17  2  0  0  0  0
 17 18  1  0  0  0  0
 18 19  1  0  0  0  0
 18 20  2  0  0  0  0
 20 21  1  0  0  0  0
 21 22  2  0  0  0  0
 22 23  1  0  0  0  0
 22 16  1  0  0  0  0
 23 24  2  0  0  0  0
 24 25  1  0  0  0  0
 25 26  2  0  0  0  0
 26 27  1  0  0  0  0
 27 28  1  0  0  0  0
 27 29  2  0  0  0  0
 29 30  1  0  0  0  0
 30 31  1  0  0  0  0
 30 32  2  0  0  0  0
 32 25  1  0  0  0  0
M  END
>  <zinc_id>
ZINC001229767004

>  <smiles>
C=CC(=O)OC[C@H](COC(=O)C(=C)C)Oc1cc(O)ccc1/C=C/c1cc(O)cc(O)c1

$$$$
