
 OpenBabel05042123343D

 31 33  0  0  0  0  0  0  0  0999 V2000
    7.1150    0.6197   -0.1357 C   0  0  0  0  0  0  0  0  0  0  0  0
    6.6953    1.0461    0.5396 C   0  0  0  0  0  0  0  0  0  0  0  0
    7.4165    0.8777    1.8591 C   0  0  0  0  0  0  0  0  0  0  0  0
    6.5891    2.5244    0.1870 C   0  0  0  0  0  0  0  0  0  0  0  0
    5.3621    0.5655    0.6841 O   0  0  0  0  0  0  0  0  0  0  0  0
    4.4648    0.6427   -0.3771 C   0  0  0  0  0  0  0  0  0  0  0  0
    4.7994    1.4682   -1.2785 O   0  0  0  0  0  0  0  0  0  0  0  0
    3.1777    0.0012   -0.3561 N   0  0  0  0  0  0  0  0  0  0  0  0
    2.2268    0.3063   -1.3554 C   0  0  0  0  0  0  0  0  0  0  0  0
    1.1382    1.1806   -0.4539 C   0  0  2  0  0  0  0  0  0  0  0  0
    2.2111    1.8681    0.3827 F   0  0  0  0  0  0  0  0  0  0  0  0
    0.9679   -0.1518    0.6815 C   0  0  1  0  0  0  0  0  0  0  0  0
    0.8578   -1.2180   -0.4448 O   0  0  0  0  0  0  0  0  0  0  0  0
   -0.2244   -2.0620   -0.3287 C   0  0  0  0  0  0  0  0  0  0  0  0
   -0.1179   -3.2994   -0.9427 C   0  0  0  0  0  0  0  0  0  0  0  0
   -1.2050   -4.1617   -0.8562 C   0  0  0  0  0  0  0  0  0  0  0  0
   -1.4686   -5.1486   -1.7769 O   0  0  0  0  0  0  0  0  0  0  0  0
   -2.0863   -4.0030    0.2069 C   0  0  0  0  0  0  0  0  0  0  0  0
   -2.1389   -2.7731    0.8446 C   0  0  0  0  0  0  0  0  0  0  0  0
   -1.3077   -1.7451    0.4444 C   0  0  0  0  0  0  0  0  0  0  0  0
   -1.7098   -0.3349    0.4868 C   0  0  0  0  0  0  0  0  0  0  0  0
   -2.6353    0.1860   -0.2804 C   0  0  0  0  0  0  0  0  0  0  0  0
   -3.7724    0.9770    0.2069 C   0  0  0  0  0  0  0  0  0  0  0  0
   -3.9575    2.2818   -0.2365 C   0  0  0  0  0  0  0  0  0  0  0  0
   -5.1556    2.9229    0.0362 C   0  0  0  0  0  0  0  0  0  0  0  0
   -5.1961    4.3145    0.0415 O   0  0  0  0  0  0  0  0  0  0  0  0
   -6.2899    2.2207    0.4039 C   0  0  0  0  0  0  0  0  0  0  0  0
   -6.1760    0.8529    0.5183 C   0  0  0  0  0  0  0  0  0  0  0  0
   -7.2230    0.1217    1.0424 O   0  0  0  0  0  0  0  0  0  0  0  0
   -4.9490    0.2626    0.4079 C   0  0  0  0  0  0  0  0  0  0  0  0
    2.5917   -0.3429    0.8377 C   0  0  0  0  0  0  0  0  0  0  0  0
  1  2  1  0  0  0  0
  2  3  1  0  0  0  0
  2  4  1  0  0  0  0
  2  5  1  0  0  0  0
  5  6  1  0  0  0  0
  6  7  2  0  0  0  0
  6  8  1  0  0  0  0
  8  9  1  0  0  0  0
  9 10  1  0  0  0  0
 10 11  1  1  0  0  0
 10 12  1  0  0  0  0
 12 13  1  6  0  0  0
 12 31  1  0  0  0  0
 13 14  1  0  0  0  0
 14 15  2  0  0  0  0
 15 16  1  0  0  0  0
 16 17  1  0  0  0  0
 16 18  2  0  0  0  0
 18 19  1  0  0  0  0
 19 20  2  0  0  0  0
 20 21  1  0  0  0  0
 20 14  1  0  0  0  0
 21 22  2  0  0  0  0
 22 23  1  0  0  0  0
 23 24  2  0  0  0  0
 24 25  1  0  0  0  0
 25 26  1  0  0  0  0
 25 27  2  0  0  0  0
 27 28  1  0  0  0  0
 28 29  1  0  0  0  0
 28 30  2  0  0  0  0
 30 23  1  0  0  0  0
 31  8  1  0  0  0  0
M  END
>  <zinc_id>
ZINC001229767053

>  <smiles>
CC(C)(C)OC(=O)N1C[C@H](F)[C@@H](Oc2cc(O)ccc2/C=C/c2cc(O)cc(O)c2)C1

$$$$
