
 OpenBabel05042123343D

 32 35  0  0  0  0  0  0  0  0999 V2000
    0.8496    5.3648   -0.7118 O   0  0  0  0  0  0  0  0  0  0  0  0
    1.3976    4.1136   -0.4829 C   0  0  0  0  0  0  0  0  0  0  0  0
    2.4285    4.0489    0.4403 C   0  0  0  0  0  0  0  0  0  0  0  0
    2.9302    2.8288    0.8065 C   0  0  0  0  0  0  0  0  0  0  0  0
    2.3666    1.6956    0.2317 C   0  0  0  0  0  0  0  0  0  0  0  0
    2.7600    0.4115    0.7664 C   0  0  0  0  0  0  0  0  0  0  0  0
    3.9890    0.0829    1.1159 C   0  0  0  0  0  0  0  0  0  0  0  0
    4.4502   -1.2691    0.7701 C   0  0  0  0  0  0  0  0  0  0  0  0
    3.6353   -2.3755    0.8408 C   0  0  0  0  0  0  0  0  0  0  0  0
    3.7859   -3.4786    0.0088 C   0  0  0  0  0  0  0  0  0  0  0  0
    2.6472   -4.2537   -0.2373 O   0  0  0  0  0  0  0  0  0  0  0  0
    4.6552   -3.3610   -1.0683 C   0  0  0  0  0  0  0  0  0  0  0  0
    5.5939   -2.3484   -1.0838 C   0  0  0  0  0  0  0  0  0  0  0  0
    6.7267   -2.4513   -1.8614 O   0  0  0  0  0  0  0  0  0  0  0  0
    5.4978   -1.3355   -0.1382 C   0  0  0  0  0  0  0  0  0  0  0  0
    1.2609    1.7411   -0.5823 C   0  0  0  0  0  0  0  0  0  0  0  0
    0.3946    0.6833   -0.7920 O   0  0  0  0  0  0  0  0  0  0  0  0
   -0.6445    0.5023    0.3666 C   0  0  1  0  0  0  0  0  0  0  0  0
   -1.2077    2.0680    0.1630 C   0  0  0  0  0  0  0  0  0  0  0  0
   -2.5592    1.9582    0.4242 O   0  0  0  0  0  0  0  0  0  0  0  0
   -2.8630    1.2738    1.5740 C   0  0  0  0  0  0  0  0  0  0  0  0
   -2.8374   -0.2084    1.4781 C   0  0  0  0  0  0  0  0  0  0  0  0
   -2.6339   -0.7746    0.2111 N   0  0  0  0  0  0  0  0  0  0  0  0
   -3.5951   -1.6651   -0.3004 C   0  0  0  0  0  0  0  0  0  0  0  0
   -5.0020   -1.3298   -0.0170 C   0  0  0  0  0  0  0  0  0  0  0  0
   -5.9664   -2.3312   -0.0139 C   0  0  0  0  0  0  0  0  0  0  0  0
   -7.3148   -2.0184    0.1081 C   0  0  0  0  0  0  0  0  0  0  0  0
   -7.7166   -0.6915    0.1404 C   0  0  0  0  0  0  0  0  0  0  0  0
   -6.7401    0.2936    0.2016 C   0  0  0  0  0  0  0  0  0  0  0  0
   -5.4935   -0.0543   -0.2676 C   0  0  0  0  0  0  0  0  0  0  0  0
   -1.7908   -0.0948   -0.7008 C   0  0  0  0  0  0  0  0  0  0  0  0
    0.9961    2.9748   -1.1647 C   0  0  0  0  0  0  0  0  0  0  0  0
  1  2  1  0  0  0  0
  2  3  2  0  0  0  0
  3  4  1  0  0  0  0
  4  5  2  0  0  0  0
  5  6  1  0  0  0  0
  5 16  1  0  0  0  0
  6  7  2  0  0  0  0
  7  8  1  0  0  0  0
  8  9  2  0  0  0  0
  9 10  1  0  0  0  0
 10 11  1  0  0  0  0
 10 12  2  0  0  0  0
 12 13  1  0  0  0  0
 13 14  1  0  0  0  0
 13 15  2  0  0  0  0
 15  8  1  0  0  0  0
 16 17  1  0  0  0  0
 16 32  2  0  0  0  0
 18 17  1  6  0  0  0
 18 19  1  0  0  0  0
 19 20  1  0  0  0  0
 20 21  1  0  0  0  0
 21 22  1  0  0  0  0
 22 23  1  0  0  0  0
 23 24  1  0  0  0  0
 23 31  1  0  0  0  0
 24 25  1  0  0  0  0
 25 26  2  0  0  0  0
 26 27  1  0  0  0  0
 27 28  2  0  0  0  0
 28 29  1  0  0  0  0
 29 30  2  0  0  0  0
 30 25  1  0  0  0  0
 31 18  1  0  0  0  0
 32  2  1  0  0  0  0
M  END
>  <zinc_id>
ZINC001229767288

>  <smiles>
Oc1cc(O)cc(/C=C/c2ccc(O)cc2O[C@H]2COCCN(Cc3ccccc3)C2)c1

$$$$
