
 OpenBabel05042123343D

 31 33  0  0  0  0  0  0  0  0999 V2000
   -1.4013    5.3991    0.7159 O   0  0  0  0  0  0  0  0  0  0  0  0
   -1.3015    4.3199   -0.0572 C   0  0  0  0  0  0  0  0  0  0  0  0
   -2.2903    4.0454   -0.9879 C   0  0  0  0  0  0  0  0  0  0  0  0
   -2.5445    2.7539   -1.4204 C   0  0  0  0  0  0  0  0  0  0  0  0
   -1.6159    1.7834   -1.1167 C   0  0  0  0  0  0  0  0  0  0  0  0
   -2.0484    0.3835   -1.0523 C   0  0  0  0  0  0  0  0  0  0  0  0
   -2.8646    0.0727   -0.0460 C   0  0  0  0  0  0  0  0  0  0  0  0
   -3.8589   -0.9907   -0.1578 C   0  0  0  0  0  0  0  0  0  0  0  0
   -3.4317   -2.2952   -0.0866 C   0  0  0  0  0  0  0  0  0  0  0  0
   -4.2951   -3.3567    0.1141 C   0  0  0  0  0  0  0  0  0  0  0  0
   -3.8160   -4.6568    0.1421 O   0  0  0  0  0  0  0  0  0  0  0  0
   -5.6358   -3.0817    0.3417 C   0  0  0  0  0  0  0  0  0  0  0  0
   -6.1035   -1.7834    0.2665 C   0  0  0  0  0  0  0  0  0  0  0  0
   -7.4653   -1.5737    0.0284 O   0  0  0  0  0  0  0  0  0  0  0  0
   -5.1805   -0.7614    0.2022 C   0  0  0  0  0  0  0  0  0  0  0  0
   -0.4148    2.1304   -0.5189 C   0  0  0  0  0  0  0  0  0  0  0  0
    0.6559    1.2737   -0.7292 O   0  0  0  0  0  0  0  0  0  0  0  0
    1.9693    1.7615   -0.4818 C   0  0  0  0  0  0  0  0  0  0  0  0
    2.3841    0.7175    0.7588 C   0  0  1  0  0  0  0  0  0  0  0  0
    2.4959   -0.5889   -0.2790 C   0  0  0  0  0  0  0  0  0  0  0  0
    3.2137   -0.1243   -1.3560 O   0  0  0  0  0  0  0  0  0  0  0  0
    3.7806   -1.1882   -2.0024 C   0  0  0  0  0  0  0  0  0  0  0  0
    5.2806   -1.1563   -1.9944 C   0  0  0  0  0  0  0  0  0  0  0  0
    5.8370   -1.3929   -0.7498 O   0  0  0  0  0  0  0  0  0  0  0  0
    5.2946   -2.5387   -0.1803 C   0  0  0  0  0  0  0  0  0  0  0  0
    5.5202   -2.5180    1.3268 C   0  0  0  0  0  0  0  0  0  0  0  0
    4.6238   -1.5597    1.8291 O   0  0  0  0  0  0  0  0  0  0  0  0
    5.2816   -0.3354    2.0142 C   0  0  0  0  0  0  0  0  0  0  0  0
    4.3463    0.8325    1.8947 C   0  0  0  0  0  0  0  0  0  0  0  0
    3.8805    1.0507    0.6099 O   0  0  0  0  0  0  0  0  0  0  0  0
   -0.2959    3.3779    0.0600 C   0  0  0  0  0  0  0  0  0  0  0  0
  1  2  1  0  0  0  0
  2  3  2  0  0  0  0
  3  4  1  0  0  0  0
  4  5  2  0  0  0  0
  5  6  1  0  0  0  0
  5 16  1  0  0  0  0
  6  7  2  0  0  0  0
  7  8  1  0  0  0  0
  8  9  2  0  0  0  0
  9 10  1  0  0  0  0
 10 11  1  0  0  0  0
 10 12  2  0  0  0  0
 12 13  1  0  0  0  0
 13 14  1  0  0  0  0
 13 15  2  0  0  0  0
 15  8  1  0  0  0  0
 16 17  1  0  0  0  0
 16 31  2  0  0  0  0
 17 18  1  0  0  0  0
 19 18  1  6  0  0  0
 19 20  1  0  0  0  0
 20 21  1  0  0  0  0
 21 22  1  0  0  0  0
 22 23  1  0  0  0  0
 23 24  1  0  0  0  0
 24 25  1  0  0  0  0
 25 26  1  0  0  0  0
 26 27  1  0  0  0  0
 27 28  1  0  0  0  0
 28 29  1  0  0  0  0
 29 30  1  0  0  0  0
 30 19  1  0  0  0  0
 31  2  1  0  0  0  0
M  END
>  <zinc_id>
ZINC001229767977

>  <smiles>
Oc1cc(O)cc(/C=C/c2ccc(O)cc2OC[C@H]2COCCOCCOCCO2)c1

$$$$
