
 OpenBabel05042123343D

 32 36  0  0  0  0  0  0  0  0999 V2000
   -5.0905   -1.0879    0.1047 O   0  0  0  0  0  0  0  0  0  0  0  0
   -4.0152   -0.4765    0.0591 C   0  0  0  0  0  0  0  0  0  0  0  0
   -3.9092    0.6537    0.8565 C   0  0  0  0  0  0  0  0  0  0  0  0
   -5.0175    1.2760    1.4171 C   0  0  0  0  0  0  0  0  0  0  0  0
   -5.0677    2.6513    1.6129 C   0  0  0  0  0  0  0  0  0  0  0  0
   -3.8749    3.3316    1.3967 C   0  0  0  0  0  0  0  0  0  0  0  0
   -2.6854    2.6163    1.3177 C   0  0  0  0  0  0  0  0  0  0  0  0
   -2.7201    1.3496    0.7456 C   0  0  0  0  0  0  0  0  0  0  0  0
   -1.7454    0.8588   -0.0273 N   0  0  0  0  0  0  0  0  0  0  0  0
   -1.8562   -0.2812   -0.7602 C   0  0  0  0  0  0  0  0  0  0  0  0
   -3.1251   -0.6773   -0.9440 N   0  0  0  0  0  0  0  0  0  0  0  0
   -3.2865   -1.5150   -2.0922 C   0  0  0  0  0  0  0  0  0  0  0  0
   -1.9468   -1.6378   -2.7334 C   0  0  0  0  0  0  0  0  0  0  0  0
   -1.3296   -0.1276   -2.3248 C   0  0  2  0  0  0  0  0  0  0  0  0
    0.0876   -0.7303   -2.0222 O   0  0  0  0  0  0  0  0  0  0  0  0
    0.1829   -1.7192   -1.1023 C   0  0  0  0  0  0  0  0  0  0  0  0
   -0.2262   -3.0365   -1.2840 C   0  0  0  0  0  0  0  0  0  0  0  0
    0.1279   -4.0557   -0.4413 C   0  0  0  0  0  0  0  0  0  0  0  0
   -0.5150   -5.2935   -0.5138 O   0  0  0  0  0  0  0  0  0  0  0  0
    1.3540   -3.9533    0.1583 C   0  0  0  0  0  0  0  0  0  0  0  0
    1.8770   -2.7020    0.3370 C   0  0  0  0  0  0  0  0  0  0  0  0
    1.2032   -1.5889   -0.1596 C   0  0  0  0  0  0  0  0  0  0  0  0
    2.0282   -0.3719   -0.1430 C   0  0  0  0  0  0  0  0  0  0  0  0
    1.9368    0.5498    0.7861 C   0  0  0  0  0  0  0  0  0  0  0  0
    3.0275    1.5222    0.9322 C   0  0  0  0  0  0  0  0  0  0  0  0
    3.9923    1.2403    1.8890 C   0  0  0  0  0  0  0  0  0  0  0  0
    5.3201    1.5671    1.7336 C   0  0  0  0  0  0  0  0  0  0  0  0
    6.3182    1.0681    2.5759 O   0  0  0  0  0  0  0  0  0  0  0  0
    5.6790    2.2903    0.6037 C   0  0  0  0  0  0  0  0  0  0  0  0
    4.7569    2.6770   -0.3281 C   0  0  0  0  0  0  0  0  0  0  0  0
    5.0505    3.4267   -1.4513 O   0  0  0  0  0  0  0  0  0  0  0  0
    3.4692    2.1760   -0.1988 C   0  0  0  0  0  0  0  0  0  0  0  0
  1  2  2  0  0  0  0
  2  3  1  0  0  0  0
  3  4  2  0  0  0  0
  4  5  1  0  0  0  0
  5  6  2  0  0  0  0
  6  7  1  0  0  0  0
  7  8  2  0  0  0  0
  8  9  1  0  0  0  0
  8  3  1  0  0  0  0
  9 10  2  0  0  0  0
 10 11  1  0  0  0  0
 11 12  1  0  0  0  0
 11  2  1  0  0  0  0
 12 13  1  0  0  0  0
 13 14  1  0  0  0  0
 14 15  1  1  0  0  0
 14 10  1  0  0  0  0
 15 16  1  0  0  0  0
 16 17  2  0  0  0  0
 17 18  1  0  0  0  0
 18 19  1  0  0  0  0
 18 20  2  0  0  0  0
 20 21  1  0  0  0  0
 21 22  2  0  0  0  0
 22 23  1  0  0  0  0
 22 16  1  0  0  0  0
 23 24  2  0  0  0  0
 24 25  1  0  0  0  0
 25 26  2  0  0  0  0
 26 27  1  0  0  0  0
 27 28  1  0  0  0  0
 27 29  2  0  0  0  0
 29 30  1  0  0  0  0
 30 31  1  0  0  0  0
 30 32  2  0  0  0  0
 32 25  1  0  0  0  0
M  END
>  <zinc_id>
ZINC001229769199

>  <smiles>
O=c1c2ccccc2nc2n1CC[C@@H]2Oc1cc(O)ccc1/C=C/c1cc(O)cc(O)c1

$$$$
