
 OpenBabel05042123343D

 31 33  0  0  0  0  0  0  0  0999 V2000
   -3.0566   -3.3912   -2.1006 O   0  0  0  0  0  0  0  0  0  0  0  0
   -3.3299   -2.2649   -1.5159 S   0  0  0  0  0  0  0  0  0  0  0  0
   -4.8033   -2.0592   -1.2653 O   0  0  0  0  0  0  0  0  0  0  0  0
   -2.8303   -0.9960   -2.5137 O   0  0  0  0  0  0  0  0  0  0  0  0
   -2.5216   -2.1414    0.0743 C   0  0  0  0  0  0  0  0  0  0  0  0
   -2.2690   -0.5290    0.2899 C   0  0  1  0  0  0  0  0  0  0  0  0
   -3.2356   -0.4904    1.6230 C   0  0  0  0  0  0  0  0  0  0  0  0
   -4.0159    0.7042    1.3031 N   0  3  0  0  0  0  0  0  0  0  0  0
   -3.4139    1.8879    1.0263 C   0  0  0  0  0  0  0  0  0  0  0  0
   -4.1048    2.9129    0.3892 C   0  0  0  0  0  0  0  0  0  0  0  0
   -5.1758    2.4998   -0.3945 C   0  0  0  0  0  0  0  0  0  0  0  0
   -5.8763    1.3736    0.0201 C   0  0  0  0  0  0  0  0  0  0  0  0
   -5.3456    0.6685    1.0943 C   0  0  0  0  0  0  0  0  0  0  0  0
   -1.0074   -0.7842    1.1389 O   0  0  0  0  0  0  0  0  0  0  0  0
    0.0242   -1.1868    0.2807 C   0  0  0  0  0  0  0  0  0  0  0  0
    0.2002   -2.5249   -0.0662 C   0  0  0  0  0  0  0  0  0  0  0  0
    0.7838   -2.8242   -1.2936 C   0  0  0  0  0  0  0  0  0  0  0  0
    1.3870   -4.0678   -1.5128 O   0  0  0  0  0  0  0  0  0  0  0  0
    1.0936   -1.7709   -2.1476 C   0  0  0  0  0  0  0  0  0  0  0  0
    1.2257   -0.4892   -1.6258 C   0  0  0  0  0  0  0  0  0  0  0  0
    0.7400   -0.1745   -0.3571 C   0  0  0  0  0  0  0  0  0  0  0  0
    1.2272    0.8897    0.4366 C   0  0  0  0  0  0  0  0  0  0  0  0
    2.2007    1.3735    0.9669 C   0  0  0  0  0  0  0  0  0  0  0  0
    3.6014    1.4797    1.0203 C   0  0  0  0  0  0  0  0  0  0  0  0
    4.1802    2.7414    0.8955 C   0  0  0  0  0  0  0  0  0  0  0  0
    5.4870    2.9017    0.4415 C   0  0  0  0  0  0  0  0  0  0  0  0
    6.1529    4.1190    0.4923 O   0  0  0  0  0  0  0  0  0  0  0  0
    6.1979    1.7867    0.0076 C   0  0  0  0  0  0  0  0  0  0  0  0
    5.6740    0.5155    0.1979 C   0  0  0  0  0  0  0  0  0  0  0  0
    6.2807   -0.6018   -0.3730 O   0  0  0  0  0  0  0  0  0  0  0  0
    4.5296    0.4423    0.9700 C   0  0  0  0  0  0  0  0  0  0  0  0
  1  2  2  0  0  0  0
  2  3  2  0  0  0  0
  2  4  1  0  0  0  0
  2  5  1  0  0  0  0
  6  5  1  6  0  0  0
  6  7  1  0  0  0  0
  6 14  1  0  0  0  0
  7  8  1  0  0  0  0
  8  9  2  0  0  0  0
  9 10  1  0  0  0  0
 10 11  2  0  0  0  0
 11 12  1  0  0  0  0
 12 13  2  0  0  0  0
 13  8  1  0  0  0  0
 14 15  1  0  0  0  0
 15 16  2  0  0  0  0
 16 17  1  0  0  0  0
 17 18  1  0  0  0  0
 17 19  2  0  0  0  0
 19 20  1  0  0  0  0
 20 21  2  0  0  0  0
 21 22  1  0  0  0  0
 21 15  1  0  0  0  0
 22 23  2  0  0  0  0
 23 24  1  0  0  0  0
 24 25  2  0  0  0  0
 25 26  1  0  0  0  0
 26 27  1  0  0  0  0
 26 28  2  0  0  0  0
 28 29  1  0  0  0  0
 29 30  1  0  0  0  0
 29 31  2  0  0  0  0
 31 24  1  0  0  0  0
M  CHG  1   8   1
M  END
>  <zinc_id>
ZINC001229769567

>  <smiles>
O=S(=O)(O)C[C@@H](C[n+]1ccccc1)Oc1cc(O)ccc1/C=C/c1cc(O)cc(O)c1

$$$$
