
 OpenBabel05042123343D

 32 36  0  0  0  0  0  0  0  0999 V2000
    4.3309    1.9710   -1.6601 C   0  0  0  0  0  0  0  0  0  0  0  0
    4.3456    1.8851   -1.6345 C   0  0  0  0  0  0  0  0  0  0  0  0
    5.0389    2.9541   -2.4581 C   0  0  0  0  0  0  0  0  0  0  0  0
    4.4413    2.1458   -0.3446 O   0  0  0  0  0  0  0  0  0  0  0  0
    4.2881    0.7907    0.3463 C   0  0  1  0  0  0  0  0  0  0  0  0
    2.9445    0.5135   -0.2175 O   0  0  0  0  0  0  0  0  0  0  0  0
    2.9420   -0.4753   -1.2790 C   0  0  2  0  0  0  0  0  0  0  0  0
    1.9505   -1.6721   -0.5242 C   0  0  2  0  0  0  0  0  0  0  0  0
    0.7191   -0.7802   -0.3155 O   0  0  0  0  0  0  0  0  0  0  0  0
   -0.2731   -1.6263    0.2059 C   0  0  0  0  0  0  0  0  0  0  0  0
   -0.0201   -2.9152    0.6648 C   0  0  0  0  0  0  0  0  0  0  0  0
   -0.8731   -3.6194    1.4827 C   0  0  0  0  0  0  0  0  0  0  0  0
   -0.2716   -4.4115    2.4622 O   0  0  0  0  0  0  0  0  0  0  0  0
   -2.1842   -3.2336    1.5047 C   0  0  0  0  0  0  0  0  0  0  0  0
   -2.5500   -2.2478    0.5922 C   0  0  0  0  0  0  0  0  0  0  0  0
   -1.6201   -1.2776    0.2202 C   0  0  0  0  0  0  0  0  0  0  0  0
   -1.9319    0.1428    0.1698 C   0  0  0  0  0  0  0  0  0  0  0  0
   -2.5196    0.8270    1.1314 C   0  0  0  0  0  0  0  0  0  0  0  0
   -3.8015    1.5316    0.9698 C   0  0  0  0  0  0  0  0  0  0  0  0
   -5.0196    0.8545    1.0539 C   0  0  0  0  0  0  0  0  0  0  0  0
   -6.0080    0.9996    0.1053 C   0  0  0  0  0  0  0  0  0  0  0  0
   -6.8474   -0.0516   -0.2854 O   0  0  0  0  0  0  0  0  0  0  0  0
   -5.9480    2.0912   -0.7545 C   0  0  0  0  0  0  0  0  0  0  0  0
   -4.8943    2.9906   -0.6409 C   0  0  0  0  0  0  0  0  0  0  0  0
   -5.0685    4.3565   -0.8914 O   0  0  0  0  0  0  0  0  0  0  0  0
   -3.8031    2.6395    0.1480 C   0  0  0  0  0  0  0  0  0  0  0  0
    2.5951   -1.3827    0.9097 C   0  0  0  0  0  0  0  0  0  0  0  0
    2.0113   -0.9194    1.8946 O   0  0  0  0  0  0  0  0  0  0  0  0
    3.9215   -1.3022    0.7199 O   0  0  0  0  0  0  0  0  0  0  0  0
    4.2605   -1.3971   -0.7495 C   0  0  2  0  0  0  0  0  0  0  0  0
    5.2460   -0.0121   -0.8248 C   0  0  1  0  0  0  0  0  0  0  0  0
    4.5989    0.6306   -2.0013 O   0  0  0  0  0  0  0  0  0  0  0  0
  1  2  1  0  0  0  0
  2  3  1  0  0  0  0
  2  4  1  0  0  0  0
  5  4  1  6  0  0  0
  5  6  1  0  0  0  0
  7  6  1  1  0  0  0
  7  8  1  0  0  0  0
  8  9  1  1  0  0  0
  8 27  1  0  0  0  0
  9 10  1  0  0  0  0
 10 11  2  0  0  0  0
 11 12  1  0  0  0  0
 12 13  1  0  0  0  0
 12 14  2  0  0  0  0
 14 15  1  0  0  0  0
 15 16  2  0  0  0  0
 16 17  1  0  0  0  0
 16 10  1  0  0  0  0
 17 18  2  0  0  0  0
 18 19  1  0  0  0  0
 19 20  2  0  0  0  0
 20 21  1  0  0  0  0
 21 22  1  0  0  0  0
 21 23  2  0  0  0  0
 23 24  1  0  0  0  0
 24 25  1  0  0  0  0
 24 26  2  0  0  0  0
 26 19  1  0  0  0  0
 27 28  2  0  0  0  0
 27 29  1  0  0  0  0
 30 29  1  1  0  0  0
 30 31  1  0  0  0  0
 30  7  1  0  0  0  0
 31 32  1  6  0  0  0
 31  5  1  0  0  0  0
 32  2  1  0  0  0  0
M  END
>  <zinc_id>
ZINC001229770092

>  <smiles>
CC1(C)O[C@H]2O[C@@H]3[C@H](Oc4cc(O)ccc4/C=C/c4cc(O)cc(O)c4)C(=O)O[C@@H]3[C@H]2O1

$$$$
