
 OpenBabel05042123343D

 32 35  0  0  0  0  0  0  0  0999 V2000
    4.1490    2.2829    0.7716 O   0  0  0  0  0  0  0  0  0  0  0  0
    3.3414    1.7766    0.5116 C   0  0  0  0  0  0  0  0  0  0  0  0
    1.9732    2.2183    0.9163 C   0  0  0  0  0  0  0  0  0  0  0  0
    1.1214    1.5463   -0.3350 C   0  0  2  0  0  0  0  0  0  0  0  0
   -0.0623    1.2007    0.5853 O   0  0  0  0  0  0  0  0  0  0  0  0
   -0.7916    0.1972   -0.0492 C   0  0  0  0  0  0  0  0  0  0  0  0
   -1.2067    0.2744   -1.3777 C   0  0  0  0  0  0  0  0  0  0  0  0
   -1.8443   -0.8226   -1.9602 C   0  0  0  0  0  0  0  0  0  0  0  0
   -2.9415   -0.5883   -2.8006 O   0  0  0  0  0  0  0  0  0  0  0  0
   -1.7362   -2.0053   -1.2274 C   0  0  0  0  0  0  0  0  0  0  0  0
   -1.5089   -1.9804    0.1499 C   0  0  0  0  0  0  0  0  0  0  0  0
   -1.3058   -0.7703    0.8140 C   0  0  0  0  0  0  0  0  0  0  0  0
   -2.1567   -0.2768    1.9020 C   0  0  0  0  0  0  0  0  0  0  0  0
   -3.3180   -0.6245    2.2812 C   0  0  0  0  0  0  0  0  0  0  0  0
   -4.6591   -0.3665    1.7478 C   0  0  0  0  0  0  0  0  0  0  0  0
   -5.2220    0.9022    1.6940 C   0  0  0  0  0  0  0  0  0  0  0  0
   -6.0288    1.2902    0.6282 C   0  0  0  0  0  0  0  0  0  0  0  0
   -6.5262    2.5800    0.5158 O   0  0  0  0  0  0  0  0  0  0  0  0
   -6.2482    0.4295   -0.4357 C   0  0  0  0  0  0  0  0  0  0  0  0
   -5.6829   -0.8327   -0.4099 C   0  0  0  0  0  0  0  0  0  0  0  0
   -5.7106   -1.6224   -1.5342 O   0  0  0  0  0  0  0  0  0  0  0  0
   -5.2658   -1.2509    0.8487 C   0  0  0  0  0  0  0  0  0  0  0  0
    1.8273    0.0929   -0.1324 C   0  0  0  0  0  0  0  0  0  0  0  0
    1.6641   -0.7554   -1.0633 O   0  0  0  0  0  0  0  0  0  0  0  0
    3.2074    0.4453    0.1046 N   0  0  0  0  0  0  0  0  0  0  0  0
    4.1315   -0.6051    0.5300 C   0  0  0  0  0  0  0  0  0  0  0  0
    5.3907   -0.5931   -0.2246 C   0  0  0  0  0  0  0  0  0  0  0  0
    6.0002    0.5591   -0.7011 C   0  0  0  0  0  0  0  0  0  0  0  0
    7.3624    0.7425   -0.5101 C   0  0  0  0  0  0  0  0  0  0  0  0
    8.1852   -0.2716   -0.0632 C   0  0  0  0  0  0  0  0  0  0  0  0
    7.6138   -1.5175    0.1175 C   0  0  0  0  0  0  0  0  0  0  0  0
    6.2480   -1.6547    0.0370 C   0  0  0  0  0  0  0  0  0  0  0  0
  1  2  2  0  0  0  0
  2  3  1  0  0  0  0
  3  4  1  0  0  0  0
  4  5  1  1  0  0  0
  4 23  1  0  0  0  0
  5  6  1  0  0  0  0
  6  7  2  0  0  0  0
  7  8  1  0  0  0  0
  8  9  1  0  0  0  0
  8 10  2  0  0  0  0
 10 11  1  0  0  0  0
 11 12  2  0  0  0  0
 12 13  1  0  0  0  0
 12  6  1  0  0  0  0
 13 14  2  0  0  0  0
 14 15  1  0  0  0  0
 15 16  2  0  0  0  0
 16 17  1  0  0  0  0
 17 18  1  0  0  0  0
 17 19  2  0  0  0  0
 19 20  1  0  0  0  0
 20 21  1  0  0  0  0
 20 22  2  0  0  0  0
 22 15  1  0  0  0  0
 23 24  2  0  0  0  0
 23 25  1  0  0  0  0
 25 26  1  0  0  0  0
 25  2  1  0  0  0  0
 26 27  1  0  0  0  0
 27 28  2  0  0  0  0
 28 29  1  0  0  0  0
 29 30  2  0  0  0  0
 30 31  1  0  0  0  0
 31 32  2  0  0  0  0
 32 27  1  0  0  0  0
M  END
>  <zinc_id>
ZINC001229771064

>  <smiles>
O=C1C[C@H](Oc2cc(O)ccc2/C=C/c2cc(O)cc(O)c2)C(=O)N1Cc1ccccc1

$$$$
