
 OpenBabel05042123343D

 31 33  0  0  0  0  0  0  0  0999 V2000
    6.2866    2.1861    0.4199 C   0  0  0  0  0  0  0  0  0  0  0  0
    6.2895    2.2653    0.5539 C   0  0  0  0  0  0  0  0  0  0  0  0
    6.0938    3.2493   -0.5910 C   0  0  0  0  0  0  0  0  0  0  0  0
    7.5183    1.4111    0.4436 C   0  0  0  0  0  0  0  0  0  0  0  0
    5.0856    1.5583    0.8190 O   0  0  0  0  0  0  0  0  0  0  0  0
    4.3396    1.1900   -0.3066 C   0  0  0  0  0  0  0  0  0  0  0  0
    4.9175    1.2674   -1.4348 O   0  0  0  0  0  0  0  0  0  0  0  0
    3.1796    0.3626   -0.1507 N   0  0  0  0  0  0  0  0  0  0  0  0
    1.8399    0.7618    0.2832 C   0  0  0  0  0  0  0  0  0  0  0  0
    1.3682   -0.7693    0.6614 C   0  0  1  0  0  0  0  0  0  0  0  0
   -0.1228   -0.4634    0.3951 O   0  0  0  0  0  0  0  0  0  0  0  0
   -0.7614   -1.6822    0.1255 C   0  0  0  0  0  0  0  0  0  0  0  0
   -0.4419   -2.8610    0.7773 C   0  0  0  0  0  0  0  0  0  0  0  0
   -0.6427   -4.1161    0.2076 C   0  0  0  0  0  0  0  0  0  0  0  0
    0.3729   -5.0465    0.4683 O   0  0  0  0  0  0  0  0  0  0  0  0
   -1.0786   -4.0924   -1.1131 C   0  0  0  0  0  0  0  0  0  0  0  0
   -1.8383   -3.0075   -1.5345 C   0  0  0  0  0  0  0  0  0  0  0  0
   -1.6182   -1.7725   -0.9596 C   0  0  0  0  0  0  0  0  0  0  0  0
   -2.5545   -0.6503   -1.1079 C   0  0  0  0  0  0  0  0  0  0  0  0
   -3.7569   -0.8011   -0.5589 C   0  0  0  0  0  0  0  0  0  0  0  0
   -4.5287    0.3244   -0.0342 C   0  0  0  0  0  0  0  0  0  0  0  0
   -5.9161    0.3318   -0.0515 C   0  0  0  0  0  0  0  0  0  0  0  0
   -6.5826    1.5051    0.2375 C   0  0  0  0  0  0  0  0  0  0  0  0
   -7.9530    1.5572    0.4533 O   0  0  0  0  0  0  0  0  0  0  0  0
   -5.8881    2.6899    0.3894 C   0  0  0  0  0  0  0  0  0  0  0  0
   -4.5043    2.7324    0.2729 C   0  0  0  0  0  0  0  0  0  0  0  0
   -3.8440    3.9314    0.1066 O   0  0  0  0  0  0  0  0  0  0  0  0
   -3.8687    1.5027    0.2907 C   0  0  0  0  0  0  0  0  0  0  0  0
    1.5988   -1.2248   -0.9068 C   0  0  0  0  0  0  0  0  0  0  0  0
    3.0341   -0.8290   -0.9367 C   0  0  0  0  0  0  0  0  0  0  0  0
    3.9764   -1.5106   -1.4003 O   0  0  0  0  0  0  0  0  0  0  0  0
  1  2  1  0  0  0  0
  2  3  1  0  0  0  0
  2  4  1  0  0  0  0
  2  5  1  0  0  0  0
  5  6  1  0  0  0  0
  6  7  2  0  0  0  0
  6  8  1  0  0  0  0
  8  9  1  0  0  0  0
  9 10  1  0  0  0  0
 10 11  1  6  0  0  0
 10 29  1  0  0  0  0
 11 12  1  0  0  0  0
 12 13  2  0  0  0  0
 13 14  1  0  0  0  0
 14 15  1  0  0  0  0
 14 16  2  0  0  0  0
 16 17  1  0  0  0  0
 17 18  2  0  0  0  0
 18 19  1  0  0  0  0
 18 12  1  0  0  0  0
 19 20  2  0  0  0  0
 20 21  1  0  0  0  0
 21 22  2  0  0  0  0
 22 23  1  0  0  0  0
 23 24  1  0  0  0  0
 23 25  2  0  0  0  0
 25 26  1  0  0  0  0
 26 27  1  0  0  0  0
 26 28  2  0  0  0  0
 28 21  1  0  0  0  0
 29 30  1  0  0  0  0
 30 31  2  0  0  0  0
 30  8  1  0  0  0  0
M  END
>  <zinc_id>
ZINC001229771137

>  <smiles>
CC(C)(C)OC(=O)N1C[C@@H](Oc2cc(O)ccc2/C=C/c2cc(O)cc(O)c2)CC1=O

$$$$
