
 OpenBabel05042123343D

 40 43  0  0  0  0  0  0  0  0999 V2000
   -6.4318    3.7318    0.5070 O   0  0  0  0  0  0  0  0  0  0  0  0
   -6.7681    2.7748    1.4187 C   0  0  0  0  0  0  0  0  0  0  0  0
   -5.7193    1.5156    1.1961 C   0  0  2  0  0  0  0  0  0  0  0  0
   -5.5970    1.8634   -0.3008 O   0  0  0  0  0  0  0  0  0  0  0  0
   -6.1444    0.6477    0.2350 C   0  0  2  0  0  0  0  0  0  0  0  0
   -4.9335   -0.2503   -0.0943 O   0  0  0  0  0  0  0  0  0  0  0  0
   -3.6772    0.0574   -0.2698 C   0  0  0  0  0  0  0  0  0  0  0  0
   -3.0757   -1.1331   -0.7262 C   0  0  0  0  0  0  0  0  0  0  0  0
   -1.7110   -1.1827   -0.7318 C   0  0  0  0  0  0  0  0  0  0  0  0
   -0.9597   -0.1132   -0.2649 C   0  0  0  0  0  0  0  0  0  0  0  0
    0.1108    0.4769   -1.0867 C   0  0  0  0  0  0  0  0  0  0  0  0
    0.7485   -0.4608   -1.8005 C   0  0  0  0  0  0  0  0  0  0  0  0
    1.4858   -1.3702   -0.9323 C   0  0  0  0  0  0  0  0  0  0  0  0
    1.1562   -2.6578   -0.6589 C   0  0  0  0  0  0  0  0  0  0  0  0
    1.8125   -3.3113    0.3671 C   0  0  0  0  0  0  0  0  0  0  0  0
    1.5096   -4.6675    0.4843 O   0  0  0  0  0  0  0  0  0  0  0  0
    3.0697   -2.8500    0.7387 C   0  0  0  0  0  0  0  0  0  0  0  0
    3.5003   -1.6241    0.3176 C   0  0  0  0  0  0  0  0  0  0  0  0
    4.7973   -1.2949    0.8002 O   0  0  0  0  0  0  0  0  0  0  0  0
    5.1993   -0.2052   -0.1651 C   0  0  1  0  0  0  0  0  0  0  0  0
    4.8621    0.9763    0.8786 O   0  0  0  0  0  0  0  0  0  0  0  0
    6.2691    0.8138    1.3744 C   0  0  1  0  0  0  0  0  0  0  0  0
    6.0708    0.6932   -0.1934 C   0  0  0  0  0  0  0  0  0  0  0  0
    5.4401    1.4792   -1.0433 O   0  0  0  0  0  0  0  0  0  0  0  0
    7.0884    2.1990    0.7073 C   0  0  2  0  0  0  0  0  0  0  0  0
    5.8862    2.9734    0.2863 O   0  0  0  0  0  0  0  0  0  0  0  0
    7.3704    1.1753   -0.6722 C   0  0  1  0  0  0  0  0  0  0  0  0
    8.8217    1.0396   -0.4436 O   0  0  0  0  0  0  0  0  0  0  0  0
    6.9344   -0.3497    0.0619 C   0  0  2  0  0  0  0  0  0  0  0  0
    7.1645   -1.1332   -1.1903 O   0  0  0  0  0  0  0  0  0  0  0  0
    2.5833   -0.8154   -0.2827 C   0  0  0  0  0  0  0  0  0  0  0  0
   -1.5674    0.6551    0.7160 C   0  0  0  0  0  0  0  0  0  0  0  0
   -0.9234    1.7778    1.2485 O   0  0  0  0  0  0  0  0  0  0  0  0
   -2.8968    0.9035    0.5063 C   0  0  0  0  0  0  0  0  0  0  0  0
   -7.1244    0.1126   -1.1116 C   0  0  1  0  0  0  0  0  0  0  0  0
   -5.8977   -0.3223   -1.9390 O   0  0  0  0  0  0  0  0  0  0  0  0
   -6.8561   -0.9263    0.2497 C   0  0  2  0  0  0  0  0  0  0  0  0
   -8.2988   -1.2164    0.3812 O   0  0  0  0  0  0  0  0  0  0  0  0
   -7.0272    0.3923    1.3849 C   0  0  1  0  0  0  0  0  0  0  0  0
   -6.2713   -0.3742    2.4443 O   0  0  0  0  0  0  0  0  0  0  0  0
  1  2  1  0  0  0  0
  3  2  1  1  0  0  0
  3  4  1  0  0  0  0
  4  5  1  0  0  0  0
  5  6  1  6  0  0  0
  5 35  1  0  0  0  0
  6  7  1  0  0  0  0
  7  8  2  0  0  0  0
  8  9  1  0  0  0  0
  9 10  2  0  0  0  0
 10 11  1  0  0  0  0
 10 32  1  0  0  0  0
 11 12  2  0  0  0  0
 12 13  1  0  0  0  0
 13 14  2  0  0  0  0
 14 15  1  0  0  0  0
 15 16  1  0  0  0  0
 15 17  2  0  0  0  0
 17 18  1  0  0  0  0
 18 19  1  0  0  0  0
 18 31  2  0  0  0  0
 20 19  1  1  0  0  0
 20 21  1  0  0  0  0
 21 22  1  0  0  0  0
 22 23  1  6  0  0  0
 22 25  1  0  0  0  0
 23 24  1  0  0  0  0
 25 26  1  6  0  0  0
 25 27  1  0  0  0  0
 27 28  1  1  0  0  0
 27 29  1  0  0  0  0
 29 30  1  6  0  0  0
 29 20  1  0  0  0  0
 31 13  1  0  0  0  0
 32 33  1  0  0  0  0
 32 34  2  0  0  0  0
 34  7  1  0  0  0  0
 35 36  1  6  0  0  0
 35 37  1  0  0  0  0
 37 38  1  1  0  0  0
 37 39  1  0  0  0  0
 39 40  1  1  0  0  0
 39  3  1  0  0  0  0
M  END
>  <zinc_id>
ZINC001529051543

>  <smiles>
OC[C@@H]1O[C@H](Oc2cc(O)cc(/C=C\c3ccc(O[C@H]4O[C@@H](CO)[C@H](O)[C@@H](O)[C@@H]4O)cc3O)c2)[C@@H](O)[C@H](O)[C@H]1O

$$$$
