MODEL 1
REMARK VINA RESULT:      -5.0      0.000      0.000
REMARK  Name = 
REMARK  5 active torsions:
REMARK  status: ('A' for Active; 'I' for Inactive)
REMARK    1  A    between atoms: CA_2  and  N_3
REMARK    2  A    between atoms: CA_2  and  C_12
REMARK    3  A    between atoms: C_4  and  CA_6
REMARK    4  A    between atoms: CA_6  and  CB_8
REMARK    5  A    between atoms: CB_8  and  CG_9
REMARK                            x       y       z     vdW  Elec       q    Type
REMARK                         _______ _______ _______ _____ _____    ______ ____
ROOT
ATOM      3  N   ALA A   2      26.525  80.128 -26.911  0.00  0.00    +0.000 NA
ATOM      4  C   ASP A   1      26.247  80.706 -25.687  0.00  0.00    +0.000 C 
ATOM      5  O   ASP A   1      25.310  81.434 -25.656  0.00  0.00    +0.000 OA
ENDROOT
BRANCH   3   2
ATOM      1  CB  ALA A   2      28.486  80.620 -27.981  0.00  0.00    +0.000 C 
ATOM      2  CA  ALA A   2      26.920  81.124 -28.065  0.00  0.00    +0.000 C 
BRANCH   2  12
ATOM     12  C   ALA A   2      26.534  80.139 -29.285  0.00  0.00    +0.000 C 
ATOM     13  O   ALA A   2      27.437  79.228 -29.298  0.00  0.00    +0.000 OA
ATOM     14  OXT ALA A   2      25.334  79.425 -29.109  0.00  0.00    +0.000 OA
ENDBRANCH   2  12
ENDBRANCH   3   2
BRANCH   4   6
ATOM      6  CA  ASP A   1      27.300  80.553 -24.488  0.00  0.00    +0.000 C 
ATOM      7  N   ASP A   1      27.793  82.052 -24.545  0.00  0.00    +0.000 NA
BRANCH   6   8
ATOM      8  CB  ASP A   1      26.151  80.914 -23.367  0.00  0.00    +0.000 C 
BRANCH   8   9
ATOM      9  CG  ASP A   1      26.806  80.322 -22.162  0.00  0.00    +0.000 C 
ATOM     10  OD1 ASP A   1      26.904  79.059 -22.180  0.00  0.00    +0.000 OA
ATOM     11  OD2 ASP A   1      27.459  81.071 -21.211  0.00  0.00    +0.000 OA
ENDBRANCH   8   9
ENDBRANCH   6   8
ENDBRANCH   4   6
TORSDOF 5
ENDMDL
MODEL 2
REMARK VINA RESULT:      -4.9      2.336      2.876
REMARK  Name = 
REMARK  5 active torsions:
REMARK  status: ('A' for Active; 'I' for Inactive)
REMARK    1  A    between atoms: CA_2  and  N_3
REMARK    2  A    between atoms: CA_2  and  C_12
REMARK    3  A    between atoms: C_4  and  CA_6
REMARK    4  A    between atoms: CA_6  and  CB_8
REMARK    5  A    between atoms: CB_8  and  CG_9
REMARK                            x       y       z     vdW  Elec       q    Type
REMARK                         _______ _______ _______ _____ _____    ______ ____
ROOT
ATOM      3  N   ALA A   2      27.875  80.512 -27.041  0.00  0.00    +0.000 NA
ATOM      4  C   ASP A   1      26.746  80.632 -26.252  0.00  0.00    +0.000 C 
ATOM      5  O   ASP A   1      26.089  79.651 -26.132  0.00  0.00    +0.000 OA
ENDROOT
BRANCH   3   2
ATOM      1  CB  ALA A   2      28.341  81.581 -29.009  0.00  0.00    +0.000 C 
ATOM      2  CA  ALA A   2      27.618  80.171 -28.557  0.00  0.00    +0.000 C 
BRANCH   2  12
ATOM     12  C   ALA A   2      28.948  79.276 -28.761  0.00  0.00    +0.000 C 
ATOM     13  O   ALA A   2      29.056  78.564 -27.701  0.00  0.00    +0.000 OA
ATOM     14  OXT ALA A   2      28.866  78.330 -29.800  0.00  0.00    +0.000 OA
ENDBRANCH   2  12
ENDBRANCH   3   2
BRANCH   4   6
ATOM      6  CA  ASP A   1      26.281  82.086 -25.762  0.00  0.00    +0.000 C 
ATOM      7  N   ASP A   1      24.946  81.584 -25.086  0.00  0.00    +0.000 NA
BRANCH   6   8
ATOM      8  CB  ASP A   1      27.120  81.933 -24.354  0.00  0.00    +0.000 C 
BRANCH   8   9
ATOM      9  CG  ASP A   1      27.493  83.364 -24.149  0.00  0.00    +0.000 C 
ATOM     10  OD1 ASP A   1      28.718  83.559 -23.889  0.00  0.00    +0.000 OA
ATOM     11  OD2 ASP A   1      26.654  84.415 -24.436  0.00  0.00    +0.000 OA
ENDBRANCH   8   9
ENDBRANCH   6   8
ENDBRANCH   4   6
TORSDOF 5
ENDMDL
MODEL 3
REMARK VINA RESULT:      -4.9     21.061     22.843
REMARK  Name = 
REMARK  5 active torsions:
REMARK  status: ('A' for Active; 'I' for Inactive)
REMARK    1  A    between atoms: CA_2  and  N_3
REMARK    2  A    between atoms: CA_2  and  C_12
REMARK    3  A    between atoms: C_4  and  CA_6
REMARK    4  A    between atoms: CA_6  and  CB_8
REMARK    5  A    between atoms: CB_8  and  CG_9
REMARK                            x       y       z     vdW  Elec       q    Type
REMARK                         _______ _______ _______ _____ _____    ______ ____
ROOT
ATOM      3  N   ALA A   2      18.977  67.117  -9.445  0.00  0.00    +0.000 NA
ATOM      4  C   ASP A   1      17.934  67.988  -9.698  0.00  0.00    +0.000 C 
ATOM      5  O   ASP A   1      17.810  68.888  -8.934  0.00  0.00    +0.000 OA
ENDROOT
BRANCH   3   2
ATOM      1  CB  ALA A   2      18.428  64.960  -8.918  0.00  0.00    +0.000 C 
ATOM      2  CA  ALA A   2      18.884  66.312  -8.095  0.00  0.00    +0.000 C 
BRANCH   2  12
ATOM     12  C   ALA A   2      20.445  65.901  -8.030  0.00  0.00    +0.000 C 
ATOM     13  O   ALA A   2      20.555  64.836  -8.735  0.00  0.00    +0.000 OA
ATOM     14  OXT ALA A   2      21.320  66.812  -8.650  0.00  0.00    +0.000 OA
ENDBRANCH   2  12
ENDBRANCH   3   2
BRANCH   4   6
ATOM      6  CA  ASP A   1      16.855  67.615 -10.823  0.00  0.00    +0.000 C 
ATOM      7  N   ASP A   1      16.718  69.087 -11.377  0.00  0.00    +0.000 NA
BRANCH   6   8
ATOM      8  CB  ASP A   1      18.038  67.255 -11.909  0.00  0.00    +0.000 C 
BRANCH   8   9
ATOM      9  CG  ASP A   1      17.248  66.396 -12.840  0.00  0.00    +0.000 C 
ATOM     10  OD1 ASP A   1      16.923  65.265 -12.369  0.00  0.00    +0.000 OA
ATOM     11  OD2 ASP A   1      16.710  66.853 -14.020  0.00  0.00    +0.000 OA
ENDBRANCH   8   9
ENDBRANCH   6   8
ENDBRANCH   4   6
TORSDOF 5
ENDMDL
MODEL 4
REMARK VINA RESULT:      -4.7     28.800     31.163
REMARK  Name = 
REMARK  5 active torsions:
REMARK  status: ('A' for Active; 'I' for Inactive)
REMARK    1  A    between atoms: CA_2  and  N_3
REMARK    2  A    between atoms: CA_2  and  C_12
REMARK    3  A    between atoms: C_4  and  CA_6
REMARK    4  A    between atoms: CA_6  and  CB_8
REMARK    5  A    between atoms: CB_8  and  CG_9
REMARK                            x       y       z     vdW  Elec       q    Type
REMARK                         _______ _______ _______ _____ _____    ______ ____
ROOT
ATOM      3  N   ALA A   2      24.698  55.996  -6.215  0.00  0.00    +0.000 NA
ATOM      4  C   ASP A   1      25.529  56.108  -7.313  0.00  0.00    +0.000 C 
ATOM      5  O   ASP A   1      25.107  55.668  -8.332  0.00  0.00    +0.000 OA
ENDROOT
BRANCH   3   2
ATOM      1  CB  ALA A   2      24.947  54.851  -4.250  0.00  0.00    +0.000 C 
ATOM      2  CA  ALA A   2      24.363  54.527  -5.757  0.00  0.00    +0.000 C 
BRANCH   2  12
ATOM     12  C   ALA A   2      22.824  54.815  -5.360  0.00  0.00    +0.000 C 
ATOM     13  O   ALA A   2      22.120  54.331  -6.316  0.00  0.00    +0.000 OA
ATOM     14  OXT ALA A   2      22.370  54.123  -4.221  0.00  0.00    +0.000 OA
ENDBRANCH   2  12
ENDBRANCH   3   2
BRANCH   4   6
ATOM      6  CA  ASP A   1      27.044  56.590  -7.106  0.00  0.00    +0.000 C 
ATOM      7  N   ASP A   1      27.671  55.476  -8.032  0.00  0.00    +0.000 NA
BRANCH   6   8
ATOM      8  CB  ASP A   1      26.930  57.650  -8.360  0.00  0.00    +0.000 C 
BRANCH   8   9
ATOM      9  CG  ASP A   1      27.226  58.915  -7.624  0.00  0.00    +0.000 C 
ATOM     10  OD1 ASP A   1      28.309  59.481  -7.959  0.00  0.00    +0.000 OA
ATOM     11  OD2 ASP A   1      26.314  59.553  -6.816  0.00  0.00    +0.000 OA
ENDBRANCH   8   9
ENDBRANCH   6   8
ENDBRANCH   4   6
TORSDOF 5
ENDMDL
MODEL 5
REMARK VINA RESULT:      -4.6     55.359     56.816
REMARK  Name = 
REMARK  5 active torsions:
REMARK  status: ('A' for Active; 'I' for Inactive)
REMARK    1  A    between atoms: CA_2  and  N_3
REMARK    2  A    between atoms: CA_2  and  C_12
REMARK    3  A    between atoms: C_4  and  CA_6
REMARK    4  A    between atoms: CA_6  and  CB_8
REMARK    5  A    between atoms: CB_8  and  CG_9
REMARK                            x       y       z     vdW  Elec       q    Type
REMARK                         _______ _______ _______ _____ _____    ______ ____
ROOT
ATOM      3  N   ALA A   2      13.130  58.051  24.051  0.00  0.00    +0.000 NA
ATOM      4  C   ASP A   1      14.378  58.639  23.970  0.00  0.00    +0.000 C 
ATOM      5  O   ASP A   1      15.071  58.267  23.081  0.00  0.00    +0.000 OA
ENDROOT
BRANCH   3   2
ATOM      1  CB  ALA A   2      12.512  56.765  25.839  0.00  0.00    +0.000 C 
ATOM      2  CA  ALA A   2      13.119  56.501  24.330  0.00  0.00    +0.000 C 
BRANCH   2  12
ATOM     12  C   ALA A   2      11.677  56.214  23.662  0.00  0.00    +0.000 C 
ATOM     13  O   ALA A   2      10.834  56.231  24.627  0.00  0.00    +0.000 OA
ATOM     14  OXT ALA A   2      11.219  57.223  22.793  0.00  0.00    +0.000 OA
ENDBRANCH   2  12
ENDBRANCH   3   2
BRANCH   4   6
ATOM      6  CA  ASP A   1      14.886  59.573  25.169  0.00  0.00    +0.000 C 
ATOM      7  N   ASP A   1      15.655  60.589  24.238  0.00  0.00    +0.000 NA
BRANCH   6   8
ATOM      8  CB  ASP A   1      13.510  60.476  25.114  0.00  0.00    +0.000 C 
BRANCH   8   9
ATOM      9  CG  ASP A   1      13.244  60.585  26.579  0.00  0.00    +0.000 C 
ATOM     10  OD1 ASP A   1      14.008  61.384  27.198  0.00  0.00    +0.000 OA
ATOM     11  OD2 ASP A   1      12.130  60.055  27.188  0.00  0.00    +0.000 OA
ENDBRANCH   8   9
ENDBRANCH   6   8
ENDBRANCH   4   6
TORSDOF 5
ENDMDL
MODEL 6
REMARK VINA RESULT:      -4.6     44.052     46.886
REMARK  Name = 
REMARK  5 active torsions:
REMARK  status: ('A' for Active; 'I' for Inactive)
REMARK    1  A    between atoms: CA_2  and  N_3
REMARK    2  A    between atoms: CA_2  and  C_12
REMARK    3  A    between atoms: C_4  and  CA_6
REMARK    4  A    between atoms: CA_6  and  CB_8
REMARK    5  A    between atoms: CB_8  and  CG_9
REMARK                            x       y       z     vdW  Elec       q    Type
REMARK                         _______ _______ _______ _____ _____    ______ ____
ROOT
ATOM      3  N   ALA A   2      18.097  62.328  17.222  0.00  0.00    +0.000 NA
ATOM      4  C   ASP A   1      18.959  62.475  16.153  0.00  0.00    +0.000 C 
ATOM      5  O   ASP A   1      18.780  61.743  15.235  0.00  0.00    +0.000 OA
ENDROOT
BRANCH   3   2
ATOM      1  CB  ALA A   2      19.028  61.624  19.189  0.00  0.00    +0.000 C 
ATOM      2  CA  ALA A   2      18.159  60.942  17.967  0.00  0.00    +0.000 C 
BRANCH   2  12
ATOM     12  C   ALA A   2      16.739  61.088  18.725  0.00  0.00    +0.000 C 
ATOM     13  O   ALA A   2      16.069  61.947  18.050  0.00  0.00    +0.000 OA
ATOM     14  OXT ALA A   2      15.936  59.933  18.699  0.00  0.00    +0.000 OA
ENDBRANCH   2  12
ENDBRANCH   3   2
BRANCH   4   6
ATOM      6  CA  ASP A   1      20.244  63.421  16.304  0.00  0.00    +0.000 C 
ATOM      7  N   ASP A   1      21.295  62.269  16.055  0.00  0.00    +0.000 NA
BRANCH   6   8
ATOM      8  CB  ASP A   1      20.206  63.811  14.705  0.00  0.00    +0.000 C 
BRANCH   8   9
ATOM      9  CG  ASP A   1      19.368  65.044  14.786  0.00  0.00    +0.000 C 
ATOM     10  OD1 ASP A   1      19.690  65.843  15.714  0.00  0.00    +0.000 OA
ATOM     11  OD2 ASP A   1      18.470  65.414  13.812  0.00  0.00    +0.000 OA
ENDBRANCH   8   9
ENDBRANCH   6   8
ENDBRANCH   4   6
TORSDOF 5
ENDMDL
MODEL 7
REMARK VINA RESULT:      -4.6     51.477     54.804
REMARK  Name = 
REMARK  5 active torsions:
REMARK  status: ('A' for Active; 'I' for Inactive)
REMARK    1  A    between atoms: CA_2  and  N_3
REMARK    2  A    between atoms: CA_2  and  C_12
REMARK    3  A    between atoms: C_4  and  CA_6
REMARK    4  A    between atoms: CA_6  and  CB_8
REMARK    5  A    between atoms: CB_8  and  CG_9
REMARK                            x       y       z     vdW  Elec       q    Type
REMARK                         _______ _______ _______ _____ _____    ______ ____
ROOT
ATOM      3  N   ALA A   2       6.611  82.379  26.024  0.00  0.00    +0.000 NA
ATOM      4  C   ASP A   1       7.709  82.064  25.245  0.00  0.00    +0.000 C 
ATOM      5  O   ASP A   1       8.172  80.984  25.413  0.00  0.00    +0.000 OA
ENDROOT
BRANCH   3   2
ATOM      1  CB  ALA A   2       6.120  83.899  27.661  0.00  0.00    +0.000 C 
ATOM      2  CA  ALA A   2       6.865  82.432  27.577  0.00  0.00    +0.000 C 
BRANCH   2  12
ATOM     12  C   ALA A   2       5.547  81.596  27.997  0.00  0.00    +0.000 C 
ATOM     13  O   ALA A   2       4.566  82.414  27.889  0.00  0.00    +0.000 OA
ATOM     14  OXT ALA A   2       5.213  80.546  27.122  0.00  0.00    +0.000 OA
ENDBRANCH   2  12
ENDBRANCH   3   2
BRANCH   4   6
ATOM      6  CA  ASP A   1       8.408  83.212  24.372  0.00  0.00    +0.000 C 
ATOM      7  N   ASP A   1       9.872  82.892  24.868  0.00  0.00    +0.000 NA
BRANCH   6   8
ATOM      8  CB  ASP A   1       8.563  82.203  23.081  0.00  0.00    +0.000 C 
BRANCH   8   9
ATOM      9  CG  ASP A   1       8.053  83.112  22.011  0.00  0.00    +0.000 C 
ATOM     10  OD1 ASP A   1       8.390  84.326  22.144  0.00  0.00    +0.000 OA
ATOM     11  OD2 ASP A   1       7.464  82.662  20.852  0.00  0.00    +0.000 OA
ENDBRANCH   8   9
ENDBRANCH   6   8
ENDBRANCH   4   6
TORSDOF 5
ENDMDL
MODEL 8
REMARK VINA RESULT:      -4.5      2.001      2.622
REMARK  Name = 
REMARK  5 active torsions:
REMARK  status: ('A' for Active; 'I' for Inactive)
REMARK    1  A    between atoms: CA_2  and  N_3
REMARK    2  A    between atoms: CA_2  and  C_12
REMARK    3  A    between atoms: C_4  and  CA_6
REMARK    4  A    between atoms: CA_6  and  CB_8
REMARK    5  A    between atoms: CB_8  and  CG_9
REMARK                            x       y       z     vdW  Elec       q    Type
REMARK                         _______ _______ _______ _____ _____    ______ ____
ROOT
ATOM      3  N   ALA A   2      27.106  81.247 -26.711  0.00  0.00    +0.000 NA
ATOM      4  C   ASP A   1      26.437  80.702 -25.632  0.00  0.00    +0.000 C 
ATOM      5  O   ASP A   1      25.900  79.661 -25.825  0.00  0.00    +0.000 OA
ENDROOT
BRANCH   3   2
ATOM      1  CB  ALA A   2      27.322  82.753 -28.419  0.00  0.00    +0.000 C 
ATOM      2  CA  ALA A   2      26.212  81.630 -27.950  0.00  0.00    +0.000 C 
BRANCH   2  12
ATOM     12  C   ALA A   2      26.775  80.478 -28.933  0.00  0.00    +0.000 C 
ATOM     13  O   ALA A   2      25.825  79.625 -29.052  0.00  0.00    +0.000 OA
ATOM     14  OXT ALA A   2      27.021  80.899 -30.253  0.00  0.00    +0.000 OA
ENDBRANCH   2  12
ENDBRANCH   3   2
BRANCH   4   6
ATOM      6  CA  ASP A   1      26.231  81.582 -24.309  0.00  0.00    +0.000 C 
ATOM      7  N   ASP A   1      26.681  80.443 -23.313  0.00  0.00    +0.000 NA
BRANCH   6   8
ATOM      8  CB  ASP A   1      27.762  82.179 -24.409  0.00  0.00    +0.000 C 
BRANCH   8   9
ATOM      9  CG  ASP A   1      27.519  83.541 -23.846  0.00  0.00    +0.000 C 
ATOM     10  OD1 ASP A   1      28.338  83.895 -22.946  0.00  0.00    +0.000 OA
ATOM     11  OD2 ASP A   1      26.637  84.442 -24.395  0.00  0.00    +0.000 OA
ENDBRANCH   8   9
ENDBRANCH   6   8
ENDBRANCH   4   6
TORSDOF 5
ENDMDL
MODEL 9
REMARK VINA RESULT:      -4.5     42.254     44.315
REMARK  Name = 
REMARK  5 active torsions:
REMARK  status: ('A' for Active; 'I' for Inactive)
REMARK    1  A    between atoms: CA_2  and  N_3
REMARK    2  A    between atoms: CA_2  and  C_12
REMARK    3  A    between atoms: C_4  and  CA_6
REMARK    4  A    between atoms: CA_6  and  CB_8
REMARK    5  A    between atoms: CB_8  and  CG_9
REMARK                            x       y       z     vdW  Elec       q    Type
REMARK                         _______ _______ _______ _____ _____    ______ ____
ROOT
ATOM      3  N   ALA A   2       9.321  57.754   8.753  0.00  0.00    +0.000 NA
ATOM      4  C   ASP A   1       8.016  58.164   8.953  0.00  0.00    +0.000 C 
ATOM      5  O   ASP A   1       7.482  57.744   9.927  0.00  0.00    +0.000 OA
ENDROOT
BRANCH   3   2
ATOM      1  CB  ALA A   2       9.248  56.393   6.915  0.00  0.00    +0.000 C 
ATOM      2  CA  ALA A   2       9.526  56.209   8.529  0.00  0.00    +0.000 C 
BRANCH   2  12
ATOM     12  C   ALA A   2      11.135  56.266   8.387  0.00  0.00    +0.000 C 
ATOM     13  O   ALA A   2      11.462  57.485   8.610  0.00  0.00    +0.000 OA
ATOM     14  OXT ALA A   2      11.838  55.541   9.367  0.00  0.00    +0.000 OA
ENDBRANCH   2  12
ENDBRANCH   3   2
BRANCH   4   6
ATOM      6  CA  ASP A   1       7.254  58.956   7.787  0.00  0.00    +0.000 C 
ATOM      7  N   ASP A   1       6.463  59.913   8.762  0.00  0.00    +0.000 NA
BRANCH   6   8
ATOM      8  CB  ASP A   1       8.491  60.031   7.641  0.00  0.00    +0.000 C 
BRANCH   8   9
ATOM      9  CG  ASP A   1       8.535  60.137   6.152  0.00  0.00    +0.000 C 
ATOM     10  OD1 ASP A   1       7.695  60.945   5.655  0.00  0.00    +0.000 OA
ATOM     11  OD2 ASP A   1       9.538  59.595   5.383  0.00  0.00    +0.000 OA
ENDBRANCH   8   9
ENDBRANCH   6   8
ENDBRANCH   4   6
TORSDOF 5
ENDMDL
MODEL 10
REMARK VINA RESULT:      -4.4     52.641     55.180
REMARK  Name = 
REMARK  5 active torsions:
REMARK  status: ('A' for Active; 'I' for Inactive)
REMARK    1  A    between atoms: CA_2  and  N_3
REMARK    2  A    between atoms: CA_2  and  C_12
REMARK    3  A    between atoms: C_4  and  CA_6
REMARK    4  A    between atoms: CA_6  and  CB_8
REMARK    5  A    between atoms: CB_8  and  CG_9
REMARK                            x       y       z     vdW  Elec       q    Type
REMARK                         _______ _______ _______ _____ _____    ______ ____
ROOT
ATOM      3  N   ALA A   2      14.323  58.546  23.624  0.00  0.00    +0.000 NA
ATOM      4  C   ASP A   1      15.641  58.772  23.277  0.00  0.00    +0.000 C 
ATOM      5  O   ASP A   1      16.149  57.943  22.595  0.00  0.00    +0.000 OA
ENDROOT
BRANCH   3   2
ATOM      1  CB  ALA A   2      13.575  58.224  25.762  0.00  0.00    +0.000 C 
ATOM      2  CA  ALA A   2      14.056  57.270  24.508  0.00  0.00    +0.000 C 
BRANCH   2  12
ATOM     12  C   ALA A   2      12.556  56.998  23.973  0.00  0.00    +0.000 C 
ATOM     13  O   ALA A   2      11.811  56.975  25.016  0.00  0.00    +0.000 OA
ATOM     14  OXT ALA A   2      12.013  58.035  23.191  0.00  0.00    +0.000 OA
ENDBRANCH   2  12
ENDBRANCH   3   2
BRANCH   4   6
ATOM      6  CA  ASP A   1      16.445  59.967  23.979  0.00  0.00    +0.000 C 
ATOM      7  N   ASP A   1      17.020  59.078  25.150  0.00  0.00    +0.000 NA
BRANCH   6   8
ATOM      8  CB  ASP A   1      17.770  59.692  23.042  0.00  0.00    +0.000 C 
BRANCH   8   9
ATOM      9  CG  ASP A   1      17.700  60.908  22.177  0.00  0.00    +0.000 C 
ATOM     10  OD1 ASP A   1      18.167  61.961  22.705  0.00  0.00    +0.000 OA
ATOM     11  OD2 ASP A   1      17.376  60.869  20.841  0.00  0.00    +0.000 OA
ENDBRANCH   8   9
ENDBRANCH   6   8
ENDBRANCH   4   6
TORSDOF 5
ENDMDL
