MODEL 1
REMARK VINA RESULT:      -4.9      0.000      0.000
REMARK  Name = 
REMARK  6 active torsions:
REMARK  status: ('A' for Active; 'I' for Inactive)
REMARK    1  A    between atoms: CB_2  and  CA_4
REMARK    2  A    between atoms: CA_4  and  N_5
REMARK    3  A    between atoms: CA_4  and  C_14
REMARK    4  A    between atoms: C_6  and  CA_8
REMARK    5  A    between atoms: CA_8  and  CB_10
REMARK    6  A    between atoms: CB_10  and  CG_11
REMARK                            x       y       z     vdW  Elec       q    Type
REMARK                         _______ _______ _______ _____ _____    ______ ____
ROOT
ATOM      5  N   VAL A   2      24.257  55.826  -6.316  0.00  0.00    +0.000 NA
ATOM      6  C   ASP A   1      25.643  55.824  -6.561  0.00  0.00    +0.000 C 
ATOM      7  O   ASP A   1      26.447  55.661  -5.602  0.00  0.00    +0.000 OA
ENDROOT
BRANCH   6   8
ATOM      8  CA  ASP A   1      26.167  57.052  -7.520  0.00  0.00    +0.000 C 
ATOM      9  N   ASP A   1      25.348  56.479  -8.774  0.00  0.00    +0.000 NA
BRANCH   8  10
ATOM     10  CB  ASP A   1      27.528  56.184  -7.966  0.00  0.00    +0.000 C 
BRANCH  10  11
ATOM     11  CG  ASP A   1      28.093  57.168  -8.937  0.00  0.00    +0.000 C 
ATOM     12  OD1 ASP A   1      28.314  58.355  -8.565  0.00  0.00    +0.000 OA
ATOM     13  OD2 ASP A   1      28.700  56.779 -10.129  0.00  0.00    +0.000 OA
ENDBRANCH  10  11
ENDBRANCH   8  10
ENDBRANCH   6   8
BRANCH   5   4
ATOM      4  CA  VAL A   2      23.833  56.245  -4.823  0.00  0.00    +0.000 C 
BRANCH   4   2
ATOM      1  CG1 VAL A   2      22.171  57.733  -3.957  0.00  0.00    +0.000 C 
ATOM      2  CB  VAL A   2      22.664  57.343  -5.305  0.00  0.00    +0.000 C 
ATOM      3  CG2 VAL A   2      23.299  58.516  -5.891  0.00  0.00    +0.000 C 
ENDBRANCH   4   2
BRANCH   4  14
ATOM     14  C   VAL A   2      22.747  55.019  -4.691  0.00  0.00    +0.000 C 
ATOM     15  O   VAL A   2      22.937  54.332  -3.639  0.00  0.00    +0.000 OA
ATOM     16  OXT VAL A   2      22.275  54.502  -5.854  0.00  0.00    +0.000 OA
ENDBRANCH   4  14
ENDBRANCH   5   4
TORSDOF 6
ENDMDL
MODEL 2
REMARK VINA RESULT:      -4.7     17.969     21.404
REMARK  Name = 
REMARK  6 active torsions:
REMARK  status: ('A' for Active; 'I' for Inactive)
REMARK    1  A    between atoms: CB_2  and  CA_4
REMARK    2  A    between atoms: CA_4  and  N_5
REMARK    3  A    between atoms: CA_4  and  C_14
REMARK    4  A    between atoms: C_6  and  CA_8
REMARK    5  A    between atoms: CA_8  and  CB_10
REMARK    6  A    between atoms: CB_10  and  CG_11
REMARK                            x       y       z     vdW  Elec       q    Type
REMARK                         _______ _______ _______ _____ _____    ______ ____
ROOT
ATOM      5  N   VAL A   2      10.669  57.945   6.844  0.00  0.00    +0.000 NA
ATOM      6  C   ASP A   1       9.315  58.185   7.143  0.00  0.00    +0.000 C 
ATOM      7  O   ASP A   1       8.737  59.194   6.654  0.00  0.00    +0.000 OA
ENDROOT
BRANCH   6   8
ATOM      8  CA  ASP A   1       8.934  58.047   8.736  0.00  0.00    +0.000 C 
ATOM      9  N   ASP A   1       9.434  56.523   8.768  0.00  0.00    +0.000 NA
BRANCH   8  10
ATOM     10  CB  ASP A   1       7.373  57.566   8.368  0.00  0.00    +0.000 C 
BRANCH  10  11
ATOM     11  CG  ASP A   1       6.676  58.228   9.511  0.00  0.00    +0.000 C 
ATOM     12  OD1 ASP A   1       6.793  57.749  10.675  0.00  0.00    +0.000 OA
ATOM     13  OD2 ASP A   1       6.176  59.526   9.433  0.00  0.00    +0.000 OA
ENDBRANCH  10  11
ENDBRANCH   8  10
ENDBRANCH   6   8
BRANCH   5   4
ATOM      4  CA  VAL A   2      11.517  59.252   6.445  0.00  0.00    +0.000 C 
BRANCH   4   2
ATOM      1  CG1 VAL A   2      13.632  59.964   7.308  0.00  0.00    +0.000 C 
ATOM      2  CB  VAL A   2      12.975  58.661   7.019  0.00  0.00    +0.000 C 
ATOM      3  CG2 VAL A   2      12.768  57.988   8.294  0.00  0.00    +0.000 C 
ENDBRANCH   4   2
BRANCH   4  14
ATOM     14  C   VAL A   2      11.802  58.709   4.920  0.00  0.00    +0.000 C 
ATOM     15  O   VAL A   2      12.199  57.503   4.915  0.00  0.00    +0.000 OA
ATOM     16  OXT VAL A   2      12.201  59.637   4.012  0.00  0.00    +0.000 OA
ENDBRANCH   4  14
ENDBRANCH   5   4
TORSDOF 6
ENDMDL
MODEL 3
REMARK VINA RESULT:      -4.6     22.356     23.967
REMARK  Name = 
REMARK  6 active torsions:
REMARK  status: ('A' for Active; 'I' for Inactive)
REMARK    1  A    between atoms: CB_2  and  CA_4
REMARK    2  A    between atoms: CA_4  and  N_5
REMARK    3  A    between atoms: CA_4  and  C_14
REMARK    4  A    between atoms: C_6  and  CA_8
REMARK    5  A    between atoms: CA_8  and  CB_10
REMARK    6  A    between atoms: CB_10  and  CG_11
REMARK                            x       y       z     vdW  Elec       q    Type
REMARK                         _______ _______ _______ _____ _____    ______ ____
ROOT
ATOM      5  N   VAL A   2      18.290  67.851  14.255  0.00  0.00    +0.000 NA
ATOM      6  C   ASP A   1      17.416  67.068  13.478  0.00  0.00    +0.000 C 
ATOM      7  O   ASP A   1      17.857  66.052  12.874  0.00  0.00    +0.000 OA
ENDROOT
BRANCH   6   8
ATOM      8  CA  ASP A   1      16.440  67.929  12.473  0.00  0.00    +0.000 C 
ATOM      9  N   ASP A   1      15.214  66.930  12.740  0.00  0.00    +0.000 NA
BRANCH   8  10
ATOM     10  CB  ASP A   1      16.933  67.029  11.150  0.00  0.00    +0.000 C 
BRANCH  10  11
ATOM     11  CG  ASP A   1      16.354  67.897  10.081  0.00  0.00    +0.000 C 
ATOM     12  OD1 ASP A   1      17.111  68.667   9.424  0.00  0.00    +0.000 OA
ATOM     13  OD2 ASP A   1      15.090  67.675   9.538  0.00  0.00    +0.000 OA
ENDBRANCH  10  11
ENDBRANCH   8  10
ENDBRANCH   6   8
BRANCH   5   4
ATOM      4  CA  VAL A   2      19.837  67.774  13.820  0.00  0.00    +0.000 C 
BRANCH   4   2
ATOM      1  CG1 VAL A   2      21.510  69.455  13.503  0.00  0.00    +0.000 C 
ATOM      2  CB  VAL A   2      20.034  69.432  13.689  0.00  0.00    +0.000 C 
ATOM      3  CG2 VAL A   2      19.434  69.904  12.448  0.00  0.00    +0.000 C 
ENDBRANCH   4   2
BRANCH   4  14
ATOM     14  C   VAL A   2      20.365  67.750  15.376  0.00  0.00    +0.000 C 
ATOM     15  O   VAL A   2      20.912  66.643  15.672  0.00  0.00    +0.000 OA
ATOM     16  OXT VAL A   2      19.669  68.508  16.263  0.00  0.00    +0.000 OA
ENDBRANCH   4  14
ENDBRANCH   5   4
TORSDOF 6
ENDMDL
MODEL 4
REMARK VINA RESULT:      -4.5     18.621     21.483
REMARK  Name = 
REMARK  6 active torsions:
REMARK  status: ('A' for Active; 'I' for Inactive)
REMARK    1  A    between atoms: CB_2  and  CA_4
REMARK    2  A    between atoms: CA_4  and  N_5
REMARK    3  A    between atoms: CA_4  and  C_14
REMARK    4  A    between atoms: C_6  and  CA_8
REMARK    5  A    between atoms: CA_8  and  CB_10
REMARK    6  A    between atoms: CB_10  and  CG_11
REMARK                            x       y       z     vdW  Elec       q    Type
REMARK                         _______ _______ _______ _____ _____    ______ ____
ROOT
ATOM      5  N   VAL A   2      10.134  57.231   7.403  0.00  0.00    +0.000 NA
ATOM      6  C   ASP A   1       8.977  57.030   8.179  0.00  0.00    +0.000 C 
ATOM      7  O   ASP A   1       8.014  56.369   7.705  0.00  0.00    +0.000 OA
ENDROOT
BRANCH   6   8
ATOM      8  CA  ASP A   1       8.408  58.384   8.918  0.00  0.00    +0.000 C 
ATOM      9  N   ASP A   1       7.385  57.523   9.804  0.00  0.00    +0.000 NA
BRANCH   8  10
ATOM     10  CB  ASP A   1       7.251  58.603   7.728  0.00  0.00    +0.000 C 
BRANCH  10  11
ATOM     11  CG  ASP A   1       7.247  60.096   7.714  0.00  0.00    +0.000 C 
ATOM     12  OD1 ASP A   1       6.147  60.716   7.650  0.00  0.00    +0.000 OA
ATOM     13  OD2 ASP A   1       8.352  60.852   8.098  0.00  0.00    +0.000 OA
ENDBRANCH  10  11
ENDBRANCH   8  10
ENDBRANCH   6   8
BRANCH   5   4
ATOM      4  CA  VAL A   2       9.904  57.160   5.813  0.00  0.00    +0.000 C 
BRANCH   4   2
ATOM      1  CG1 VAL A   2       9.699  59.393   4.977  0.00  0.00    +0.000 C 
ATOM      2  CB  VAL A   2      10.805  58.531   5.474  0.00  0.00    +0.000 C 
ATOM      3  CG2 VAL A   2      11.290  59.122   6.714  0.00  0.00    +0.000 C 
ENDBRANCH   4   2
BRANCH   4  14
ATOM     14  C   VAL A   2      11.186  56.159   5.583  0.00  0.00    +0.000 C 
ATOM     15  O   VAL A   2      11.501  56.070   4.356  0.00  0.00    +0.000 OA
ATOM     16  OXT VAL A   2      11.328  55.143   6.472  0.00  0.00    +0.000 OA
ENDBRANCH   4  14
ENDBRANCH   5   4
TORSDOF 6
ENDMDL
MODEL 5
REMARK VINA RESULT:      -4.5     18.596     21.350
REMARK  Name = 
REMARK  6 active torsions:
REMARK  status: ('A' for Active; 'I' for Inactive)
REMARK    1  A    between atoms: CB_2  and  CA_4
REMARK    2  A    between atoms: CA_4  and  N_5
REMARK    3  A    between atoms: CA_4  and  C_14
REMARK    4  A    between atoms: C_6  and  CA_8
REMARK    5  A    between atoms: CA_8  and  CB_10
REMARK    6  A    between atoms: CB_10  and  CG_11
REMARK                            x       y       z     vdW  Elec       q    Type
REMARK                         _______ _______ _______ _____ _____    ______ ____
ROOT
ATOM      5  N   VAL A   2       9.963  57.835   8.001  0.00  0.00    +0.000 NA
ATOM      6  C   ASP A   1       8.559  57.923   8.011  0.00  0.00    +0.000 C 
ATOM      7  O   ASP A   1       7.881  57.200   7.230  0.00  0.00    +0.000 OA
ENDROOT
BRANCH   6   8
ATOM      8  CA  ASP A   1       7.972  59.459   7.992  0.00  0.00    +0.000 C 
ATOM      9  N   ASP A   1       6.833  59.082   9.058  0.00  0.00    +0.000 NA
BRANCH   8  10
ATOM     10  CB  ASP A   1       6.948  59.100   6.717  0.00  0.00    +0.000 C 
BRANCH  10  11
ATOM     11  CG  ASP A   1       6.953  60.443   6.062  0.00  0.00    +0.000 C 
ATOM     12  OD1 ASP A   1       8.050  60.963   5.714  0.00  0.00    +0.000 OA
ATOM     13  OD2 ASP A   1       5.806  61.013   5.513  0.00  0.00    +0.000 OA
ENDBRANCH  10  11
ENDBRANCH   8  10
ENDBRANCH   6   8
BRANCH   5   4
ATOM      4  CA  VAL A   2      10.599  57.319   6.617  0.00  0.00    +0.000 C 
BRANCH   4   2
ATOM      1  CG1 VAL A   2      12.605  57.972   5.486  0.00  0.00    +0.000 C 
ATOM      2  CB  VAL A   2      12.107  57.995   6.888  0.00  0.00    +0.000 C 
ATOM      3  CG2 VAL A   2      11.960  59.393   7.272  0.00  0.00    +0.000 C 
ENDBRANCH   4   2
BRANCH   4  14
ATOM     14  C   VAL A   2      11.041  55.871   7.257  0.00  0.00    +0.000 C 
ATOM     15  O   VAL A   2      11.617  56.008   8.380  0.00  0.00    +0.000 OA
ATOM     16  OXT VAL A   2      11.338  54.884   6.373  0.00  0.00    +0.000 OA
ENDBRANCH   4  14
ENDBRANCH   5   4
TORSDOF 6
ENDMDL
MODEL 6
REMARK VINA RESULT:      -4.4     22.700     24.814
REMARK  Name = 
REMARK  6 active torsions:
REMARK  status: ('A' for Active; 'I' for Inactive)
REMARK    1  A    between atoms: CB_2  and  CA_4
REMARK    2  A    between atoms: CA_4  and  N_5
REMARK    3  A    between atoms: CA_4  and  C_14
REMARK    4  A    between atoms: C_6  and  CA_8
REMARK    5  A    between atoms: CA_8  and  CB_10
REMARK    6  A    between atoms: CB_10  and  CG_11
REMARK                            x       y       z     vdW  Elec       q    Type
REMARK                         _______ _______ _______ _____ _____    ______ ____
ROOT
ATOM      5  N   VAL A   2      18.377  62.380  17.258  0.00  0.00    +0.000 NA
ATOM      6  C   ASP A   1      18.705  62.473  15.892  0.00  0.00    +0.000 C 
ATOM      7  O   ASP A   1      18.432  61.516  15.117  0.00  0.00    +0.000 OA
ENDROOT
BRANCH   6   8
ATOM      8  CA  ASP A   1      20.230  63.010  15.593  0.00  0.00    +0.000 C 
ATOM      9  N   ASP A   1      19.753  63.744  14.248  0.00  0.00    +0.000 NA
BRANCH   8  10
ATOM     10  CB  ASP A   1      20.603  61.616  14.743  0.00  0.00    +0.000 C 
BRANCH  10  11
ATOM     11  CG  ASP A   1      21.946  61.360  15.342  0.00  0.00    +0.000 C 
ATOM     12  OD1 ASP A   1      22.633  62.330  15.772  0.00  0.00    +0.000 OA
ATOM     13  OD2 ASP A   1      22.353  60.094  15.757  0.00  0.00    +0.000 OA
ENDBRANCH  10  11
ENDBRANCH   8  10
ENDBRANCH   6   8
BRANCH   5   4
ATOM      4  CA  VAL A   2      18.269  60.881  17.828  0.00  0.00    +0.000 C 
BRANCH   4   2
ATOM      1  CG1 VAL A   2      20.474  60.937  18.758  0.00  0.00    +0.000 C 
ATOM      2  CB  VAL A   2      19.095  61.205  19.248  0.00  0.00    +0.000 C 
ATOM      3  CG2 VAL A   2      19.013  62.627  19.554  0.00  0.00    +0.000 C 
ENDBRANCH   4   2
BRANCH   4  14
ATOM     14  C   VAL A   2      16.804  61.154  18.519  0.00  0.00    +0.000 C 
ATOM     15  O   VAL A   2      16.313  60.094  19.019  0.00  0.00    +0.000 OA
ATOM     16  OXT VAL A   2      16.055  62.148  17.978  0.00  0.00    +0.000 OA
ENDBRANCH   4  14
ENDBRANCH   5   4
TORSDOF 6
ENDMDL
MODEL 7
REMARK VINA RESULT:      -4.4     18.277     20.901
REMARK  Name = 
REMARK  6 active torsions:
REMARK  status: ('A' for Active; 'I' for Inactive)
REMARK    1  A    between atoms: CB_2  and  CA_4
REMARK    2  A    between atoms: CA_4  and  N_5
REMARK    3  A    between atoms: CA_4  and  C_14
REMARK    4  A    between atoms: C_6  and  CA_8
REMARK    5  A    between atoms: CA_8  and  CB_10
REMARK    6  A    between atoms: CB_10  and  CG_11
REMARK                            x       y       z     vdW  Elec       q    Type
REMARK                         _______ _______ _______ _____ _____    ______ ____
ROOT
ATOM      5  N   VAL A   2       9.552  57.352   5.592  0.00  0.00    +0.000 NA
ATOM      6  C   ASP A   1       9.086  58.567   5.056  0.00  0.00    +0.000 C 
ATOM      7  O   ASP A   1       9.834  59.583   5.066  0.00  0.00    +0.000 OA
ENDROOT
BRANCH   6   8
ATOM      8  CA  ASP A   1       7.573  58.990   5.543  0.00  0.00    +0.000 C 
ATOM      9  N   ASP A   1       7.273  59.700   4.136  0.00  0.00    +0.000 NA
BRANCH   8  10
ATOM     10  CB  ASP A   1       8.133  60.429   6.191  0.00  0.00    +0.000 C 
BRANCH  10  11
ATOM     11  CG  ASP A   1       7.755  60.178   7.613  0.00  0.00    +0.000 C 
ATOM     12  OD1 ASP A   1       8.627  59.753   8.425  0.00  0.00    +0.000 OA
ATOM     13  OD2 ASP A   1       6.592  60.692   8.181  0.00  0.00    +0.000 OA
ENDBRANCH  10  11
ENDBRANCH   8  10
ENDBRANCH   6   8
BRANCH   5   4
ATOM      4  CA  VAL A   2      10.704  57.501   6.704  0.00  0.00    +0.000 C 
BRANCH   4   2
ATOM      1  CG1 VAL A   2      11.315  56.184   8.607  0.00  0.00    +0.000 C 
ATOM      2  CB  VAL A   2      10.299  56.098   7.523  0.00  0.00    +0.000 C 
ATOM      3  CG2 VAL A   2       8.990  56.249   8.144  0.00  0.00    +0.000 C 
ENDBRANCH   4   2
BRANCH   4  14
ATOM     14  C   VAL A   2      11.823  56.735   5.775  0.00  0.00    +0.000 C 
ATOM     15  O   VAL A   2      12.890  57.416   5.665  0.00  0.00    +0.000 OA
ATOM     16  OXT VAL A   2      11.345  55.921   4.800  0.00  0.00    +0.000 OA
ENDBRANCH   4  14
ENDBRANCH   5   4
TORSDOF 6
ENDMDL
MODEL 8
REMARK VINA RESULT:      -4.3     17.412     20.498
REMARK  Name = 
REMARK  6 active torsions:
REMARK  status: ('A' for Active; 'I' for Inactive)
REMARK    1  A    between atoms: CB_2  and  CA_4
REMARK    2  A    between atoms: CA_4  and  N_5
REMARK    3  A    between atoms: CA_4  and  C_14
REMARK    4  A    between atoms: C_6  and  CA_8
REMARK    5  A    between atoms: CA_8  and  CB_10
REMARK    6  A    between atoms: CB_10  and  CG_11
REMARK                            x       y       z     vdW  Elec       q    Type
REMARK                         _______ _______ _______ _____ _____    ______ ____
ROOT
ATOM      5  N   VAL A   2       8.746  57.259   7.088  0.00  0.00    +0.000 NA
ATOM      6  C   ASP A   1       9.973  56.696   6.689  0.00  0.00    +0.000 C 
ATOM      7  O   ASP A   1      10.830  56.382   7.561  0.00  0.00    +0.000 OA
ENDROOT
BRANCH   6   8
ATOM      8  CA  ASP A   1      10.710  57.478   5.445  0.00  0.00    +0.000 C 
ATOM      9  N   ASP A   1      11.231  56.093   4.826  0.00  0.00    +0.000 NA
BRANCH   8  10
ATOM     10  CB  ASP A   1      12.120  57.655   6.331  0.00  0.00    +0.000 C 
BRANCH  10  11
ATOM     11  CG  ASP A   1      12.669  58.844   5.614  0.00  0.00    +0.000 C 
ATOM     12  OD1 ASP A   1      12.522  59.996   6.112  0.00  0.00    +0.000 OA
ATOM     13  OD2 ASP A   1      13.618  58.734   4.600  0.00  0.00    +0.000 OA
ENDBRANCH  10  11
ENDBRANCH   8  10
ENDBRANCH   6   8
BRANCH   5   4
ATOM      4  CA  VAL A   2       8.780  58.021   8.504  0.00  0.00    +0.000 C 
BRANCH   4   2
ATOM      1  CG1 VAL A   2       9.065  60.237   7.645  0.00  0.00    +0.000 C 
ATOM      2  CB  VAL A   2       7.914  59.353   7.972  0.00  0.00    +0.000 C 
ATOM      3  CG2 VAL A   2       7.241  59.037   6.720  0.00  0.00    +0.000 C 
ENDBRANCH   4   2
BRANCH   4  14
ATOM     14  C   VAL A   2       7.431  57.257   9.048  0.00  0.00    +0.000 C 
ATOM     15  O   VAL A   2       7.022  57.746  10.146  0.00  0.00    +0.000 OA
ATOM     16  OXT VAL A   2       7.300  55.948   8.711  0.00  0.00    +0.000 OA
ENDBRANCH   4  14
ENDBRANCH   5   4
TORSDOF 6
ENDMDL
MODEL 9
REMARK VINA RESULT:      -4.3     16.067     19.176
REMARK  Name = 
REMARK  6 active torsions:
REMARK  status: ('A' for Active; 'I' for Inactive)
REMARK    1  A    between atoms: CB_2  and  CA_4
REMARK    2  A    between atoms: CA_4  and  N_5
REMARK    3  A    between atoms: CA_4  and  C_14
REMARK    4  A    between atoms: C_6  and  CA_8
REMARK    5  A    between atoms: CA_8  and  CB_10
REMARK    6  A    between atoms: CB_10  and  CG_11
REMARK                            x       y       z     vdW  Elec       q    Type
REMARK                         _______ _______ _______ _____ _____    ______ ____
ROOT
ATOM      5  N   VAL A   2      10.555  58.762   6.861  0.00  0.00    +0.000 NA
ATOM      6  C   ASP A   1      10.644  59.069   5.490  0.00  0.00    +0.000 C 
ATOM      7  O   ASP A   1       9.639  58.905   4.746  0.00  0.00    +0.000 OA
ENDROOT
BRANCH   6   8
ATOM      8  CA  ASP A   1      11.986  58.477   4.746  0.00  0.00    +0.000 C 
ATOM      9  N   ASP A   1      12.846  59.758   5.185  0.00  0.00    +0.000 NA
BRANCH   8  10
ATOM     10  CB  ASP A   1      11.564  59.211   3.301  0.00  0.00    +0.000 C 
BRANCH  10  11
ATOM     11  CG  ASP A   1      12.224  58.243   2.375  0.00  0.00    +0.000 C 
ATOM     12  OD1 ASP A   1      13.383  58.491   1.935  0.00  0.00    +0.000 OA
ATOM     13  OD2 ASP A   1      11.783  56.930   2.226  0.00  0.00    +0.000 OA
ENDBRANCH  10  11
ENDBRANCH   8  10
ENDBRANCH   6   8
BRANCH   5   4
ATOM      4  CA  VAL A   2       9.434  57.672   7.239  0.00  0.00    +0.000 C 
BRANCH   4   2
ATOM      1  CG1 VAL A   2      10.842  55.741   7.096  0.00  0.00    +0.000 C 
ATOM      2  CB  VAL A   2      10.462  56.717   8.153  0.00  0.00    +0.000 C 
ATOM      3  CG2 VAL A   2      11.661  57.471   8.497  0.00  0.00    +0.000 C 
ENDBRANCH   4   2
BRANCH   4  14
ATOM     14  C   VAL A   2       8.923  58.522   8.549  0.00  0.00    +0.000 C 
ATOM     15  O   VAL A   2       8.267  57.793   9.357  0.00  0.00    +0.000 OA
ATOM     16  OXT VAL A   2       8.675  59.842   8.354  0.00  0.00    +0.000 OA
ENDBRANCH   4  14
ENDBRANCH   5   4
TORSDOF 6
ENDMDL
MODEL 10
REMARK VINA RESULT:      -4.3     17.442     19.268
REMARK  Name = 
REMARK  6 active torsions:
REMARK  status: ('A' for Active; 'I' for Inactive)
REMARK    1  A    between atoms: CB_2  and  CA_4
REMARK    2  A    between atoms: CA_4  and  N_5
REMARK    3  A    between atoms: CA_4  and  C_14
REMARK    4  A    between atoms: C_6  and  CA_8
REMARK    5  A    between atoms: CA_8  and  CB_10
REMARK    6  A    between atoms: CB_10  and  CG_11
REMARK                            x       y       z     vdW  Elec       q    Type
REMARK                         _______ _______ _______ _____ _____    ______ ____
ROOT
ATOM      5  N   VAL A   2      11.204  59.384   4.941  0.00  0.00    +0.000 NA
ATOM      6  C   ASP A   1      12.208  58.879   5.788  0.00  0.00    +0.000 C 
ATOM      7  O   ASP A   1      12.962  57.953   5.382  0.00  0.00    +0.000 OA
ENDROOT
BRANCH   6   8
ATOM      8  CA  ASP A   1      11.708  58.554   7.320  0.00  0.00    +0.000 C 
ATOM      9  N   ASP A   1      13.213  58.624   7.872  0.00  0.00    +0.000 NA
BRANCH   8  10
ATOM     10  CB  ASP A   1      11.841  56.905   7.062  0.00  0.00    +0.000 C 
BRANCH  10  11
ATOM     11  CG  ASP A   1      11.167  56.443   8.312  0.00  0.00    +0.000 C 
ATOM     12  OD1 ASP A   1      11.791  55.697   9.118  0.00  0.00    +0.000 OA
ATOM     13  OD2 ASP A   1      10.014  57.048   8.808  0.00  0.00    +0.000 OA
ENDBRANCH  10  11
ENDBRANCH   8  10
ENDBRANCH   6   8
BRANCH   5   4
ATOM      4  CA  VAL A   2      10.692  58.358   3.812  0.00  0.00    +0.000 C 
BRANCH   4   2
ATOM      1  CG1 VAL A   2       8.844  57.392   4.986  0.00  0.00    +0.000 C 
ATOM      2  CB  VAL A   2       9.065  58.590   4.132  0.00  0.00    +0.000 C 
ATOM      3  CG2 VAL A   2       8.889  59.763   4.977  0.00  0.00    +0.000 C 
ENDBRANCH   4   2
BRANCH   4  14
ATOM     14  C   VAL A   2      10.710  59.506   2.636  0.00  0.00    +0.000 C 
ATOM     15  O   VAL A   2      10.022  59.157   1.627  0.00  0.00    +0.000 OA
ATOM     16  OXT VAL A   2      11.826  60.275   2.558  0.00  0.00    +0.000 OA
ENDBRANCH   4  14
ENDBRANCH   5   4
TORSDOF 6
ENDMDL
