MODEL 1
REMARK VINA RESULT:      -4.4      0.000      0.000
REMARK  Name = 
REMARK  9 active torsions:
REMARK  status: ('A' for Active; 'I' for Inactive)
REMARK    1  A    between atoms: CE_2  and  CD_3
REMARK    2  A    between atoms: CD_3  and  CG_4
REMARK    3  A    between atoms: CG_4  and  CB_5
REMARK    4  A    between atoms: CB_5  and  CA_6
REMARK    5  A    between atoms: CA_6  and  N_7
REMARK    6  A    between atoms: CA_6  and  C_16
REMARK    7  A    between atoms: C_8  and  CA_10
REMARK    8  A    between atoms: CA_10  and  CB_12
REMARK    9  A    between atoms: CB_12  and  CG_13
REMARK                            x       y       z     vdW  Elec       q    Type
REMARK                         _______ _______ _______ _____ _____    ______ ____
ROOT
ATOM      6  CA  LYS A   2       8.123  58.163   7.253  0.00  0.00    +0.000 C 
ENDROOT
BRANCH   6   7
ATOM      7  N   LYS A   2       9.224  58.955   6.390  0.00  0.00    +0.000 NA
ATOM      8  C   ASP A   1       9.420  58.274   5.147  0.00  0.00    +0.000 C 
ATOM      9  O   ASP A   1       8.827  57.234   4.823  0.00  0.00    +0.000 OA
BRANCH   8  10
ATOM     10  CA  ASP A   1      10.951  58.412   4.569  0.00  0.00    +0.000 C 
ATOM     11  N   ASP A   1      10.563  59.710   3.702  0.00  0.00    +0.000 NA
BRANCH  10  12
ATOM     12  CB  ASP A   1      11.439  59.320   5.892  0.00  0.00    +0.000 C 
BRANCH  12  13
ATOM     13  CG  ASP A   1      12.901  59.176   5.946  0.00  0.00    +0.000 C 
ATOM     14  OD1 ASP A   1      13.338  58.583   6.979  0.00  0.00    +0.000 OA
ATOM     15  OD2 ASP A   1      13.785  60.111   5.401  0.00  0.00    +0.000 OA
ENDBRANCH  12  13
ENDBRANCH  10  12
ENDBRANCH   8  10
ENDBRANCH   6   7
BRANCH   6  16
ATOM     16  C   LYS A   2       7.548  59.543   7.930  0.00  0.00    +0.000 C 
ATOM     17  O   LYS A   2       6.817  59.405   8.908  0.00  0.00    +0.000 OA
ATOM     18  OXT LYS A   2       8.225  60.677   7.547  0.00  0.00    +0.000 OA
ENDBRANCH   6  16
BRANCH   6   5
ATOM      5  CB  LYS A   2       9.205  57.913   8.508  0.00  0.00    +0.000 C 
BRANCH   5   4
ATOM      4  CG  LYS A   2       9.544  56.440   8.369  0.00  0.00    +0.000 C 
BRANCH   4   3
ATOM      3  CD  LYS A   2      11.041  56.237   8.244  0.00  0.00    +0.000 C 
BRANCH   3   2
ATOM      1  NZ  LYS A   2      11.287  55.376   6.490  0.00  0.00    +0.000 NA
ATOM      2  CE  LYS A   2      11.268  55.510   6.924  0.00  0.00    +0.000 C 
ENDBRANCH   3   2
ENDBRANCH   4   3
ENDBRANCH   5   4
ENDBRANCH   6   5
TORSDOF 9
ENDMDL
MODEL 2
REMARK VINA RESULT:      -4.3      2.618      5.517
REMARK  Name = 
REMARK  9 active torsions:
REMARK  status: ('A' for Active; 'I' for Inactive)
REMARK    1  A    between atoms: CE_2  and  CD_3
REMARK    2  A    between atoms: CD_3  and  CG_4
REMARK    3  A    between atoms: CG_4  and  CB_5
REMARK    4  A    between atoms: CB_5  and  CA_6
REMARK    5  A    between atoms: CA_6  and  N_7
REMARK    6  A    between atoms: CA_6  and  C_16
REMARK    7  A    between atoms: C_8  and  CA_10
REMARK    8  A    between atoms: CA_10  and  CB_12
REMARK    9  A    between atoms: CB_12  and  CG_13
REMARK                            x       y       z     vdW  Elec       q    Type
REMARK                         _______ _______ _______ _____ _____    ______ ____
ROOT
ATOM      6  CA  LYS A   2      10.198  57.036   6.993  0.00  0.00    +0.000 C 
ENDROOT
BRANCH   6   7
ATOM      7  N   LYS A   2       9.168  56.756   8.195  0.00  0.00    +0.000 NA
ATOM      8  C   ASP A   1       7.943  56.254   7.652  0.00  0.00    +0.000 C 
ATOM      9  O   ASP A   1       7.737  56.086   6.441  0.00  0.00    +0.000 OA
BRANCH   8  10
ATOM     10  CA  ASP A   1       6.624  56.683   8.530  0.00  0.00    +0.000 C 
ATOM     11  N   ASP A   1       7.229  56.018   9.864  0.00  0.00    +0.000 NA
BRANCH  10  12
ATOM     12  CB  ASP A   1       7.263  58.194   8.876  0.00  0.00    +0.000 C 
BRANCH  12  13
ATOM     13  CG  ASP A   1       6.241  59.159   8.442  0.00  0.00    +0.000 C 
ATOM     14  OD1 ASP A   1       6.256  59.426   7.202  0.00  0.00    +0.000 OA
ATOM     15  OD2 ASP A   1       5.777  60.201   9.250  0.00  0.00    +0.000 OA
ENDBRANCH  12  13
ENDBRANCH  10  12
ENDBRANCH   8  10
ENDBRANCH   6   7
BRANCH   6  16
ATOM     16  C   LYS A   2      11.087  55.701   7.339  0.00  0.00    +0.000 C 
ATOM     17  O   LYS A   2      11.347  54.962   6.393  0.00  0.00    +0.000 OA
ATOM     18  OXT LYS A   2      11.723  55.754   8.557  0.00  0.00    +0.000 OA
ENDBRANCH   6  16
BRANCH   6   5
ATOM      5  CB  LYS A   2      11.153  58.012   7.965  0.00  0.00    +0.000 C 
BRANCH   5   4
ATOM      4  CG  LYS A   2      11.800  58.951   6.963  0.00  0.00    +0.000 C 
BRANCH   4   3
ATOM      3  CD  LYS A   2      13.286  59.088   7.229  0.00  0.00    +0.000 C 
BRANCH   3   2
ATOM      1  NZ  LYS A   2      13.824  60.712   6.252  0.00  0.00    +0.000 NA
ATOM      2  CE  LYS A   2      13.730  60.374   6.542  0.00  0.00    +0.000 C 
ENDBRANCH   3   2
ENDBRANCH   4   3
ENDBRANCH   5   4
ENDBRANCH   6   5
TORSDOF 9
ENDMDL
MODEL 3
REMARK VINA RESULT:      -4.3      2.466      3.969
REMARK  Name = 
REMARK  9 active torsions:
REMARK  status: ('A' for Active; 'I' for Inactive)
REMARK    1  A    between atoms: CE_2  and  CD_3
REMARK    2  A    between atoms: CD_3  and  CG_4
REMARK    3  A    between atoms: CG_4  and  CB_5
REMARK    4  A    between atoms: CB_5  and  CA_6
REMARK    5  A    between atoms: CA_6  and  N_7
REMARK    6  A    between atoms: CA_6  and  C_16
REMARK    7  A    between atoms: C_8  and  CA_10
REMARK    8  A    between atoms: CA_10  and  CB_12
REMARK    9  A    between atoms: CB_12  and  CG_13
REMARK                            x       y       z     vdW  Elec       q    Type
REMARK                         _______ _______ _______ _____ _____    ______ ____
ROOT
ATOM      6  CA  LYS A   2      10.972  57.605   7.831  0.00  0.00    +0.000 C 
ENDROOT
BRANCH   6   7
ATOM      7  N   LYS A   2      10.371  57.001   6.467  0.00  0.00    +0.000 NA
ATOM      8  C   ASP A   1      11.449  56.696   5.578  0.00  0.00    +0.000 C 
ATOM      9  O   ASP A   1      12.645  56.889   5.843  0.00  0.00    +0.000 OA
BRANCH   8  10
ATOM     10  CA  ASP A   1      11.050  56.869   3.995  0.00  0.00    +0.000 C 
ATOM     11  N   ASP A   1       9.484  56.698   4.316  0.00  0.00    +0.000 NA
BRANCH  10  12
ATOM     12  CB  ASP A   1      10.994  58.540   4.124  0.00  0.00    +0.000 C 
BRANCH  12  13
ATOM     13  CG  ASP A   1      12.163  59.028   3.377  0.00  0.00    +0.000 C 
ATOM     14  OD1 ASP A   1      12.564  58.256   2.455  0.00  0.00    +0.000 OA
ATOM     15  OD2 ASP A   1      13.169  59.810   3.952  0.00  0.00    +0.000 OA
ENDBRANCH  12  13
ENDBRANCH  10  12
ENDBRANCH   8  10
ENDBRANCH   6   7
BRANCH   6  16
ATOM     16  C   LYS A   2      10.719  56.208   8.653  0.00  0.00    +0.000 C 
ATOM     17  O   LYS A   2      11.721  55.637   9.076  0.00  0.00    +0.000 OA
ATOM     18  OXT LYS A   2       9.420  56.031   9.067  0.00  0.00    +0.000 OA
ENDBRANCH   6  16
BRANCH   6   5
ATOM      5  CB  LYS A   2       9.479  58.223   8.280  0.00  0.00    +0.000 C 
BRANCH   5   4
ATOM      4  CG  LYS A   2       9.433  59.551   7.546  0.00  0.00    +0.000 C 
BRANCH   4   3
ATOM      3  CD  LYS A   2       8.007  60.045   7.410  0.00  0.00    +0.000 C 
BRANCH   3   2
ATOM      1  NZ  LYS A   2       7.906  60.682   5.548  0.00  0.00    +0.000 NA
ATOM      2  CE  LYS A   2       7.873  60.590   5.993  0.00  0.00    +0.000 C 
ENDBRANCH   3   2
ENDBRANCH   4   3
ENDBRANCH   5   4
ENDBRANCH   6   5
TORSDOF 9
ENDMDL
MODEL 4
REMARK VINA RESULT:      -4.3     42.586     44.751
REMARK  Name = 
REMARK  9 active torsions:
REMARK  status: ('A' for Active; 'I' for Inactive)
REMARK    1  A    between atoms: CE_2  and  CD_3
REMARK    2  A    between atoms: CD_3  and  CG_4
REMARK    3  A    between atoms: CG_4  and  CB_5
REMARK    4  A    between atoms: CB_5  and  CA_6
REMARK    5  A    between atoms: CA_6  and  N_7
REMARK    6  A    between atoms: CA_6  and  C_16
REMARK    7  A    between atoms: C_8  and  CA_10
REMARK    8  A    between atoms: CA_10  and  CB_12
REMARK    9  A    between atoms: CB_12  and  CG_13
REMARK                            x       y       z     vdW  Elec       q    Type
REMARK                         _______ _______ _______ _____ _____    ______ ____
ROOT
ATOM      6  CA  LYS A   2      26.039  81.167 -28.546  0.00  0.00    +0.000 C 
ENDROOT
BRANCH   6   7
ATOM      7  N   LYS A   2      26.931  80.445 -27.421  0.00  0.00    +0.000 NA
ATOM      8  C   ASP A   1      26.452  80.829 -26.129  0.00  0.00    +0.000 C 
ATOM      9  O   ASP A   1      25.504  81.606 -25.941  0.00  0.00    +0.000 OA
BRANCH   8  10
ATOM     10  CA  ASP A   1      27.635  80.886 -24.992  0.00  0.00    +0.000 C 
ATOM     11  N   ASP A   1      28.788  80.819 -26.111  0.00  0.00    +0.000 NA
BRANCH  10  12
ATOM     12  CB  ASP A   1      27.621  82.562 -24.966  0.00  0.00    +0.000 C 
BRANCH  12  13
ATOM     13  CG  ASP A   1      27.776  82.932 -23.551  0.00  0.00    +0.000 C 
ATOM     14  OD1 ASP A   1      27.358  82.064 -22.726  0.00  0.00    +0.000 OA
ATOM     15  OD2 ASP A   1      27.701  84.250 -23.090  0.00  0.00    +0.000 OA
ENDBRANCH  12  13
ENDBRANCH  10  12
ENDBRANCH   8  10
ENDBRANCH   6   7
BRANCH   6  16
ATOM     16  C   LYS A   2      26.134  79.880 -29.559  0.00  0.00    +0.000 C 
ATOM     17  O   LYS A   2      27.220  79.308 -29.610  0.00  0.00    +0.000 OA
ATOM     18  OXT LYS A   2      24.911  79.388 -29.953  0.00  0.00    +0.000 OA
ENDBRANCH   6  16
BRANCH   6   5
ATOM      5  CB  LYS A   2      27.387  81.894 -29.228  0.00  0.00    +0.000 C 
BRANCH   5   4
ATOM      4  CG  LYS A   2      27.153  83.367 -28.942  0.00  0.00    +0.000 C 
BRANCH   4   3
ATOM      3  CD  LYS A   2      25.672  83.685 -28.911  0.00  0.00    +0.000 C 
BRANCH   3   2
ATOM      1  NZ  LYS A   2      25.362  84.868 -30.455  0.00  0.00    +0.000 NA
ATOM      2  CE  LYS A   2      25.417  84.660 -30.054  0.00  0.00    +0.000 C 
ENDBRANCH   3   2
ENDBRANCH   4   3
ENDBRANCH   5   4
ENDBRANCH   6   5
TORSDOF 9
ENDMDL
MODEL 5
REMARK VINA RESULT:      -4.2     43.123     45.131
REMARK  Name = 
REMARK  9 active torsions:
REMARK  status: ('A' for Active; 'I' for Inactive)
REMARK    1  A    between atoms: CE_2  and  CD_3
REMARK    2  A    between atoms: CD_3  and  CG_4
REMARK    3  A    between atoms: CG_4  and  CB_5
REMARK    4  A    between atoms: CB_5  and  CA_6
REMARK    5  A    between atoms: CA_6  and  N_7
REMARK    6  A    between atoms: CA_6  and  C_16
REMARK    7  A    between atoms: C_8  and  CA_10
REMARK    8  A    between atoms: CA_10  and  CB_12
REMARK    9  A    between atoms: CB_12  and  CG_13
REMARK                            x       y       z     vdW  Elec       q    Type
REMARK                         _______ _______ _______ _____ _____    ______ ____
ROOT
ATOM      6  CA  LYS A   2      26.953  81.192 -29.160  0.00  0.00    +0.000 C 
ENDROOT
BRANCH   6   7
ATOM      7  N   LYS A   2      26.274  80.888 -27.735  0.00  0.00    +0.000 NA
ATOM      8  C   ASP A   1      25.792  82.113 -27.177  0.00  0.00    +0.000 C 
ATOM      9  O   ASP A   1      25.905  83.220 -27.727  0.00  0.00    +0.000 OA
BRANCH   8  10
ATOM     10  CA  ASP A   1      25.845  82.142 -25.536  0.00  0.00    +0.000 C 
ATOM     11  N   ASP A   1      25.785  80.537 -25.453  0.00  0.00    +0.000 NA
BRANCH  10  12
ATOM     12  CB  ASP A   1      27.521  82.178 -25.526  0.00  0.00    +0.000 C 
BRANCH  12  13
ATOM     13  CG  ASP A   1      27.880  83.462 -24.904  0.00  0.00    +0.000 C 
ATOM     14  OD1 ASP A   1      29.030  83.491 -24.371  0.00  0.00    +0.000 OA
ATOM     15  OD2 ASP A   1      26.946  84.311 -24.304  0.00  0.00    +0.000 OA
ENDBRANCH  12  13
ENDBRANCH  10  12
ENDBRANCH   8  10
ENDBRANCH   6   7
BRANCH   6  16
ATOM     16  C   LYS A   2      26.421  79.779 -29.803  0.00  0.00    +0.000 C 
ATOM     17  O   LYS A   2      27.259  79.099 -30.389  0.00  0.00    +0.000 OA
ATOM     18  OXT LYS A   2      25.205  79.365 -29.311  0.00  0.00    +0.000 OA
ENDBRANCH   6  16
BRANCH   6   5
ATOM      5  CB  LYS A   2      28.405  80.509 -28.677  0.00  0.00    +0.000 C 
BRANCH   5   4
ATOM      4  CG  LYS A   2      29.434  81.443 -29.289  0.00  0.00    +0.000 C 
BRANCH   4   3
ATOM      3  CD  LYS A   2      28.930  82.872 -29.300  0.00  0.00    +0.000 C 
BRANCH   3   2
ATOM      1  NZ  LYS A   2      29.980  83.741 -27.878  0.00  0.00    +0.000 NA
ATOM      2  CE  LYS A   2      29.717  83.615 -28.227  0.00  0.00    +0.000 C 
ENDBRANCH   3   2
ENDBRANCH   4   3
ENDBRANCH   5   4
ENDBRANCH   6   5
TORSDOF 9
ENDMDL
MODEL 6
REMARK VINA RESULT:      -4.2     22.542     24.908
REMARK  Name = 
REMARK  9 active torsions:
REMARK  status: ('A' for Active; 'I' for Inactive)
REMARK    1  A    between atoms: CE_2  and  CD_3
REMARK    2  A    between atoms: CD_3  and  CG_4
REMARK    3  A    between atoms: CG_4  and  CB_5
REMARK    4  A    between atoms: CB_5  and  CA_6
REMARK    5  A    between atoms: CA_6  and  N_7
REMARK    6  A    between atoms: CA_6  and  C_16
REMARK    7  A    between atoms: C_8  and  CA_10
REMARK    8  A    between atoms: CA_10  and  CB_12
REMARK    9  A    between atoms: CB_12  and  CG_13
REMARK                            x       y       z     vdW  Elec       q    Type
REMARK                         _______ _______ _______ _____ _____    ______ ____
ROOT
ATOM      6  CA  LYS A   2      17.072  59.504 -17.151  0.00  0.00    +0.000 C 
ENDROOT
BRANCH   6   7
ATOM      7  N   LYS A   2      15.738  59.958 -16.376  0.00  0.00    +0.000 NA
ATOM      8  C   ASP A   1      14.916  58.809 -16.151  0.00  0.00    +0.000 C 
ATOM      9  O   ASP A   1      15.209  57.661 -16.519  0.00  0.00    +0.000 OA
BRANCH   8  10
ATOM     10  CA  ASP A   1      13.311  59.153 -16.155  0.00  0.00    +0.000 C 
ATOM     11  N   ASP A   1      13.367  59.652 -17.683  0.00  0.00    +0.000 NA
BRANCH  10  12
ATOM     12  CB  ASP A   1      12.908  57.582 -16.581  0.00  0.00    +0.000 C 
BRANCH  12  13
ATOM     13  CG  ASP A   1      11.695  57.267 -15.811  0.00  0.00    +0.000 C 
ATOM     14  OD1 ASP A   1      11.846  57.283 -14.552  0.00  0.00    +0.000 OA
ATOM     15  OD2 ASP A   1      10.707  56.387 -16.262  0.00  0.00    +0.000 OA
ENDBRANCH  12  13
ENDBRANCH  10  12
ENDBRANCH   8  10
ENDBRANCH   6   7
BRANCH   6  16
ATOM     16  C   LYS A   2      17.999  60.600 -16.357  0.00  0.00    +0.000 C 
ATOM     17  O   LYS A   2      18.837  61.193 -17.032  0.00  0.00    +0.000 OA
ATOM     18  OXT LYS A   2      17.498  60.973 -15.132  0.00  0.00    +0.000 OA
ENDBRANCH   6  16
BRANCH   6   5
ATOM      5  CB  LYS A   2      16.768  60.567 -18.412  0.00  0.00    +0.000 C 
BRANCH   5   4
ATOM      4  CG  LYS A   2      17.100  59.736 -19.638  0.00  0.00    +0.000 C 
BRANCH   4   3
ATOM      3  CD  LYS A   2      16.898  58.260 -19.363  0.00  0.00    +0.000 C 
BRANCH   3   2
ATOM      1  NZ  LYS A   2      18.419  57.243 -20.095  0.00  0.00    +0.000 NA
ATOM      2  CE  LYS A   2      18.104  57.542 -19.959  0.00  0.00    +0.000 C 
ENDBRANCH   3   2
ENDBRANCH   4   3
ENDBRANCH   5   4
ENDBRANCH   6   5
TORSDOF 9
ENDMDL
MODEL 7
REMARK VINA RESULT:      -4.2     13.882     14.965
REMARK  Name = 
REMARK  9 active torsions:
REMARK  status: ('A' for Active; 'I' for Inactive)
REMARK    1  A    between atoms: CE_2  and  CD_3
REMARK    2  A    between atoms: CD_3  and  CG_4
REMARK    3  A    between atoms: CG_4  and  CB_5
REMARK    4  A    between atoms: CB_5  and  CA_6
REMARK    5  A    between atoms: CA_6  and  N_7
REMARK    6  A    between atoms: CA_6  and  C_16
REMARK    7  A    between atoms: C_8  and  CA_10
REMARK    8  A    between atoms: CA_10  and  CB_12
REMARK    9  A    between atoms: CB_12  and  CG_13
REMARK                            x       y       z     vdW  Elec       q    Type
REMARK                         _______ _______ _______ _____ _____    ______ ____
ROOT
ATOM      6  CA  LYS A   2      18.186  60.988  18.141  0.00  0.00    +0.000 C 
ENDROOT
BRANCH   6   7
ATOM      7  N   LYS A   2      18.154  61.892  16.812  0.00  0.00    +0.000 NA
ATOM      8  C   ASP A   1      19.119  61.390  15.883  0.00  0.00    +0.000 C 
ATOM      9  O   ASP A   1      19.856  60.418  16.104  0.00  0.00    +0.000 OA
BRANCH   8  10
ATOM     10  CA  ASP A   1      19.776  62.561  14.938  0.00  0.00    +0.000 C 
ATOM     11  N   ASP A   1      18.843  63.693  15.599  0.00  0.00    +0.000 NA
BRANCH  10  12
ATOM     12  CB  ASP A   1      21.030  62.824  16.019  0.00  0.00    +0.000 C 
BRANCH  12  13
ATOM     13  CG  ASP A   1      22.247  62.892  15.197  0.00  0.00    +0.000 C 
ATOM     14  OD1 ASP A   1      23.138  62.040  15.496  0.00  0.00    +0.000 OA
ATOM     15  OD2 ASP A   1      22.745  64.083  14.661  0.00  0.00    +0.000 OA
ENDBRANCH  12  13
ENDBRANCH  10  12
ENDBRANCH   8  10
ENDBRANCH   6   7
BRANCH   6  16
ATOM     16  C   LYS A   2      16.567  61.127  18.368  0.00  0.00    +0.000 C 
ATOM     17  O   LYS A   2      16.054  62.179  17.994  0.00  0.00    +0.000 OA
ATOM     18  OXT LYS A   2      15.934  59.932  18.620  0.00  0.00    +0.000 OA
ENDBRANCH   6  16
BRANCH   6   5
ATOM      5  CB  LYS A   2      18.508  62.320  19.106  0.00  0.00    +0.000 C 
BRANCH   5   4
ATOM      4  CG  LYS A   2      19.315  61.721  20.244  0.00  0.00    +0.000 C 
BRANCH   4   3
ATOM      3  CD  LYS A   2      18.598  61.895  21.568  0.00  0.00    +0.000 C 
BRANCH   3   2
ATOM      1  NZ  LYS A   2      18.650  60.099  22.374  0.00  0.00    +0.000 NA
ATOM      2  CE  LYS A   2      18.641  60.540  22.263  0.00  0.00    +0.000 C 
ENDBRANCH   3   2
ENDBRANCH   4   3
ENDBRANCH   5   4
ENDBRANCH   6   5
TORSDOF 9
ENDMDL
MODEL 8
REMARK VINA RESULT:      -4.1     13.612     15.459
REMARK  Name = 
REMARK  9 active torsions:
REMARK  status: ('A' for Active; 'I' for Inactive)
REMARK    1  A    between atoms: CE_2  and  CD_3
REMARK    2  A    between atoms: CD_3  and  CG_4
REMARK    3  A    between atoms: CG_4  and  CB_5
REMARK    4  A    between atoms: CB_5  and  CA_6
REMARK    5  A    between atoms: CA_6  and  N_7
REMARK    6  A    between atoms: CA_6  and  C_16
REMARK    7  A    between atoms: C_8  and  CA_10
REMARK    8  A    between atoms: CA_10  and  CB_12
REMARK    9  A    between atoms: CB_12  and  CG_13
REMARK                            x       y       z     vdW  Elec       q    Type
REMARK                         _______ _______ _______ _____ _____    ______ ____
ROOT
ATOM      6  CA  LYS A   2      19.489  67.774  12.814  0.00  0.00    +0.000 C 
ENDROOT
BRANCH   6   7
ATOM      7  N   LYS A   2      18.201  68.123  11.918  0.00  0.00    +0.000 NA
ATOM      8  C   ASP A   1      18.463  67.758  10.561  0.00  0.00    +0.000 C 
ATOM      9  O   ASP A   1      19.530  67.264  10.167  0.00  0.00    +0.000 OA
BRANCH   8  10
ATOM     10  CA  ASP A   1      17.700  68.722   9.473  0.00  0.00    +0.000 C 
ATOM     11  N   ASP A   1      16.256  68.348  10.074  0.00  0.00    +0.000 NA
BRANCH  10  12
ATOM     12  CB  ASP A   1      17.867  70.072  10.454  0.00  0.00    +0.000 C 
BRANCH  12  13
ATOM     13  CG  ASP A   1      17.744  71.227   9.552  0.00  0.00    +0.000 C 
ATOM     14  OD1 ASP A   1      17.319  72.288  10.103  0.00  0.00    +0.000 OA
ATOM     15  OD2 ASP A   1      17.419  71.112   8.197  0.00  0.00    +0.000 OA
ENDBRANCH  12  13
ENDBRANCH  10  12
ENDBRANCH   8  10
ENDBRANCH   6   7
BRANCH   6  16
ATOM     16  C   LYS A   2      18.622  66.823  13.832  0.00  0.00    +0.000 C 
ATOM     17  O   LYS A   2      18.168  67.372  14.833  0.00  0.00    +0.000 OA
ATOM     18  OXT LYS A   2      18.215  65.633  13.274  0.00  0.00    +0.000 OA
ENDBRANCH   6  16
BRANCH   6   5
ATOM      5  CB  LYS A   2      19.261  69.131  13.771  0.00  0.00    +0.000 C 
BRANCH   5   4
ATOM      4  CG  LYS A   2      20.288  70.105  13.221  0.00  0.00    +0.000 C 
BRANCH   4   3
ATOM      3  CD  LYS A   2      21.358  70.404  14.252  0.00  0.00    +0.000 C 
BRANCH   3   2
ATOM      1  NZ  LYS A   2      20.700  71.778  15.500  0.00  0.00    +0.000 NA
ATOM      2  CE  LYS A   2      20.783  71.472  15.173  0.00  0.00    +0.000 C 
ENDBRANCH   3   2
ENDBRANCH   4   3
ENDBRANCH   5   4
ENDBRANCH   6   5
TORSDOF 9
ENDMDL
MODEL 9
REMARK VINA RESULT:      -4.1     23.530     25.306
REMARK  Name = 
REMARK  9 active torsions:
REMARK  status: ('A' for Active; 'I' for Inactive)
REMARK    1  A    between atoms: CE_2  and  CD_3
REMARK    2  A    between atoms: CD_3  and  CG_4
REMARK    3  A    between atoms: CG_4  and  CB_5
REMARK    4  A    between atoms: CB_5  and  CA_6
REMARK    5  A    between atoms: CA_6  and  N_7
REMARK    6  A    between atoms: CA_6  and  C_16
REMARK    7  A    between atoms: C_8  and  CA_10
REMARK    8  A    between atoms: CA_10  and  CB_12
REMARK    9  A    between atoms: CB_12  and  CG_13
REMARK                            x       y       z     vdW  Elec       q    Type
REMARK                         _______ _______ _______ _____ _____    ______ ____
ROOT
ATOM      6  CA  LYS A   2      14.051  58.563 -17.965  0.00  0.00    +0.000 C 
ENDROOT
BRANCH   6   7
ATOM      7  N   LYS A   2      14.860  59.693 -17.158  0.00  0.00    +0.000 NA
ATOM      8  C   ASP A   1      14.868  60.900 -17.926  0.00  0.00    +0.000 C 
ATOM      9  O   ASP A   1      14.336  61.019 -19.040  0.00  0.00    +0.000 OA
BRANCH   8  10
ATOM     10  CA  ASP A   1      16.224  61.799 -17.702  0.00  0.00    +0.000 C 
ATOM     11  N   ASP A   1      15.556  62.597 -16.476  0.00  0.00    +0.000 NA
BRANCH  10  12
ATOM     12  CB  ASP A   1      16.908  60.639 -16.703  0.00  0.00    +0.000 C 
BRANCH  12  13
ATOM     13  CG  ASP A   1      18.294  60.489 -17.171  0.00  0.00    +0.000 C 
ATOM     14  OD1 ASP A   1      18.717  59.294 -17.203  0.00  0.00    +0.000 OA
ATOM     15  OD2 ASP A   1      19.288  61.446 -16.945  0.00  0.00    +0.000 OA
ENDBRANCH  12  13
ENDBRANCH  10  12
ENDBRANCH   8  10
ENDBRANCH   6   7
BRANCH   6  16
ATOM     16  C   LYS A   2      13.557  57.821 -16.588  0.00  0.00    +0.000 C 
ATOM     17  O   LYS A   2      12.466  57.259 -16.634  0.00  0.00    +0.000 OA
ATOM     18  OXT LYS A   2      14.564  57.616 -15.672  0.00  0.00    +0.000 OA
ENDBRANCH   6  16
BRANCH   6   5
ATOM      5  CB  LYS A   2      15.413  57.594 -18.085  0.00  0.00    +0.000 C 
BRANCH   5   4
ATOM      4  CG  LYS A   2      15.655  57.541 -19.583  0.00  0.00    +0.000 C 
BRANCH   4   3
ATOM      3  CD  LYS A   2      16.840  58.401 -19.972  0.00  0.00    +0.000 C 
BRANCH   3   2
ATOM      1  NZ  LYS A   2      18.422  57.239 -20.131  0.00  0.00    +0.000 NA
ATOM      2  CE  LYS A   2      18.048  57.474 -20.021  0.00  0.00    +0.000 C 
ENDBRANCH   3   2
ENDBRANCH   4   3
ENDBRANCH   5   4
ENDBRANCH   6   5
TORSDOF 9
ENDMDL
MODEL 10
REMARK VINA RESULT:      -4.0     11.244     12.923
REMARK  Name = 
REMARK  9 active torsions:
REMARK  status: ('A' for Active; 'I' for Inactive)
REMARK    1  A    between atoms: CE_2  and  CD_3
REMARK    2  A    between atoms: CD_3  and  CG_4
REMARK    3  A    between atoms: CG_4  and  CB_5
REMARK    4  A    between atoms: CB_5  and  CA_6
REMARK    5  A    between atoms: CA_6  and  N_7
REMARK    6  A    between atoms: CA_6  and  C_16
REMARK    7  A    between atoms: C_8  and  CA_10
REMARK    8  A    between atoms: CA_10  and  CB_12
REMARK    9  A    between atoms: CB_12  and  CG_13
REMARK                            x       y       z     vdW  Elec       q    Type
REMARK                         _______ _______ _______ _____ _____    ______ ____
ROOT
ATOM      6  CA  LYS A   2      16.009  66.461   9.205  0.00  0.00    +0.000 C 
ENDROOT
BRANCH   6   7
ATOM      7  N   LYS A   2      16.495  67.993   9.241  0.00  0.00    +0.000 NA
ATOM      8  C   ASP A   1      17.693  68.121   8.470  0.00  0.00    +0.000 C 
ATOM      9  O   ASP A   1      18.249  67.178   7.889  0.00  0.00    +0.000 OA
BRANCH   8  10
ATOM     10  CA  ASP A   1      18.704  69.285   9.035  0.00  0.00    +0.000 C 
ATOM     11  N   ASP A   1      19.953  68.662   8.237  0.00  0.00    +0.000 NA
BRANCH  10  12
ATOM     12  CB  ASP A   1      18.303  70.332   7.788  0.00  0.00    +0.000 C 
BRANCH  12  13
ATOM     13  CG  ASP A   1      17.957  71.603   8.442  0.00  0.00    +0.000 C 
ATOM     14  OD1 ASP A   1      16.829  71.611   9.023  0.00  0.00    +0.000 OA
ATOM     15  OD2 ASP A   1      18.366  72.850   7.960  0.00  0.00    +0.000 OA
ENDBRANCH  12  13
ENDBRANCH  10  12
ENDBRANCH   8  10
ENDBRANCH   6   7
BRANCH   6  16
ATOM     16  C   LYS A   2      14.566  66.853   8.531  0.00  0.00    +0.000 C 
ATOM     17  O   LYS A   2      13.760  67.422   9.263  0.00  0.00    +0.000 OA
ATOM     18  OXT LYS A   2      14.564  66.816   7.156  0.00  0.00    +0.000 OA
ENDBRANCH   6  16
BRANCH   6   5
ATOM      5  CB  LYS A   2      15.391  66.563  10.761  0.00  0.00    +0.000 C 
BRANCH   5   4
ATOM      4  CG  LYS A   2      16.644  66.591  11.617  0.00  0.00    +0.000 C 
BRANCH   4   3
ATOM      3  CD  LYS A   2      16.402  67.345  12.909  0.00  0.00    +0.000 C 
BRANCH   3   2
ATOM      1  NZ  LYS A   2      18.195  67.763  13.607  0.00  0.00    +0.000 NA
ATOM      2  CE  LYS A   2      17.774  67.621  13.511  0.00  0.00    +0.000 C 
ENDBRANCH   3   2
ENDBRANCH   4   3
ENDBRANCH   5   4
ENDBRANCH   6   5
TORSDOF 9
ENDMDL
