MODEL 1
REMARK VINA RESULT:      -5.0      0.000      0.000
REMARK  Name = 
REMARK  8 active torsions:
REMARK  status: ('A' for Active; 'I' for Inactive)
REMARK    1  A    between atoms: CD_2  and  CG_4
REMARK    2  A    between atoms: CG_4  and  CB_5
REMARK    3  A    between atoms: CB_5  and  CA_6
REMARK    4  A    between atoms: CA_6  and  N_7
REMARK    5  A    between atoms: CA_6  and  C_16
REMARK    6  A    between atoms: C_8  and  CA_10
REMARK    7  A    between atoms: CA_10  and  CB_12
REMARK    8  A    between atoms: CB_12  and  CG_13
REMARK                            x       y       z     vdW  Elec       q    Type
REMARK                         _______ _______ _______ _____ _____    ______ ____
ROOT
ATOM      6  CA  GLN A   2      25.883  56.016  -6.407  0.00  0.00    +0.000 C 
ENDROOT
BRANCH   6   7
ATOM      7  N   GLN A   2      24.449  56.668  -6.422  0.00  0.00    +0.000 NA
ATOM      8  C   ASP A   1      24.206  57.213  -5.162  0.00  0.00    +0.000 C 
ATOM      9  O   ASP A   1      25.090  57.798  -4.492  0.00  0.00    +0.000 OA
BRANCH   8  10
ATOM     10  CA  ASP A   1      22.751  57.827  -4.852  0.00  0.00    +0.000 C 
ATOM     11  N   ASP A   1      22.552  58.332  -6.333  0.00  0.00    +0.000 NA
BRANCH  10  12
ATOM     12  CB  ASP A   1      21.984  56.404  -5.160  0.00  0.00    +0.000 C 
BRANCH  12  13
ATOM     13  CG  ASP A   1      22.165  55.612  -3.910  0.00  0.00    +0.000 C 
ATOM     14  OD1 ASP A   1      21.815  56.130  -2.825  0.00  0.00    +0.000 OA
ATOM     15  OD2 ASP A   1      22.409  54.259  -4.000  0.00  0.00    +0.000 OA
ENDBRANCH  12  13
ENDBRANCH  10  12
ENDBRANCH   8  10
ENDBRANCH   6   7
BRANCH   6  16
ATOM     16  C   GLN A   2      25.303  54.515  -6.508  0.00  0.00    +0.000 C 
ATOM     17  O   GLN A   2      24.334  54.525  -7.303  0.00  0.00    +0.000 OA
ATOM     18  OXT GLN A   2      26.174  53.473  -6.504  0.00  0.00    +0.000 OA
ENDBRANCH   6  16
BRANCH   6   5
ATOM      5  CB  GLN A   2      26.029  56.157  -8.039  0.00  0.00    +0.000 C 
BRANCH   5   4
ATOM      4  CG  GLN A   2      27.541  56.054  -8.169  0.00  0.00    +0.000 C 
BRANCH   4   2
ATOM      1  NE2 GLN A   2      28.434  57.079  -9.962  0.00  0.00    +0.000 NA
ATOM      2  CD  GLN A   2      27.939  57.192  -9.062  0.00  0.00    +0.000 C 
ATOM      3  OE1 GLN A   2      27.659  58.323  -8.554  0.00  0.00    +0.000 OA
ENDBRANCH   4   2
ENDBRANCH   5   4
ENDBRANCH   6   5
TORSDOF 8
ENDMDL
MODEL 2
REMARK VINA RESULT:      -4.8     17.440     20.719
REMARK  Name = 
REMARK  8 active torsions:
REMARK  status: ('A' for Active; 'I' for Inactive)
REMARK    1  A    between atoms: CD_2  and  CG_4
REMARK    2  A    between atoms: CG_4  and  CB_5
REMARK    3  A    between atoms: CB_5  and  CA_6
REMARK    4  A    between atoms: CA_6  and  N_7
REMARK    5  A    between atoms: CA_6  and  C_16
REMARK    6  A    between atoms: C_8  and  CA_10
REMARK    7  A    between atoms: CA_10  and  CB_12
REMARK    8  A    between atoms: CB_12  and  CG_13
REMARK                            x       y       z     vdW  Elec       q    Type
REMARK                         _______ _______ _______ _____ _____    ______ ____
ROOT
ATOM      6  CA  GLN A   2      11.112  57.609   7.905  0.00  0.00    +0.000 C 
ENDROOT
BRANCH   6   7
ATOM      7  N   GLN A   2       9.654  57.493   7.319  0.00  0.00    +0.000 NA
ATOM      8  C   ASP A   1       8.751  57.617   8.373  0.00  0.00    +0.000 C 
ATOM      9  O   ASP A   1       8.921  58.418   9.323  0.00  0.00    +0.000 OA
BRANCH   8  10
ATOM     10  CA  ASP A   1       7.184  57.398   8.080  0.00  0.00    +0.000 C 
ATOM     11  N   ASP A   1       7.117  56.078   8.941  0.00  0.00    +0.000 NA
BRANCH  10  12
ATOM     12  CB  ASP A   1       6.722  58.335   9.351  0.00  0.00    +0.000 C 
BRANCH  12  13
ATOM     13  CG  ASP A   1       5.753  59.303   8.760  0.00  0.00    +0.000 C 
ATOM     14  OD1 ASP A   1       5.837  60.505   9.099  0.00  0.00    +0.000 OA
ATOM     15  OD2 ASP A   1       5.017  58.930   7.656  0.00  0.00    +0.000 OA
ENDBRANCH  12  13
ENDBRANCH  10  12
ENDBRANCH   8  10
ENDBRANCH   6   7
BRANCH   6  16
ATOM     16  C   GLN A   2      11.221  56.028   8.200  0.00  0.00    +0.000 C 
ATOM     17  O   GLN A   2      11.368  55.437   7.104  0.00  0.00    +0.000 OA
ATOM     18  OXT GLN A   2      11.899  55.610   9.300  0.00  0.00    +0.000 OA
ENDBRANCH   6  16
BRANCH   6   5
ATOM      5  CB  GLN A   2      11.787  57.460   6.412  0.00  0.00    +0.000 C 
BRANCH   5   4
ATOM      4  CG  GLN A   2      12.925  58.461   6.546  0.00  0.00    +0.000 C 
BRANCH   4   2
ATOM      1  NE2 GLN A   2      12.803  58.584   4.303  0.00  0.00    +0.000 NA
ATOM      2  CD  GLN A   2      13.098  59.049   5.177  0.00  0.00    +0.000 C 
ATOM      3  OE1 GLN A   2      13.714  60.161   5.206  0.00  0.00    +0.000 OA
ENDBRANCH   4   2
ENDBRANCH   5   4
ENDBRANCH   6   5
TORSDOF 8
ENDMDL
MODEL 3
REMARK VINA RESULT:      -4.8     19.986     22.880
REMARK  Name = 
REMARK  8 active torsions:
REMARK  status: ('A' for Active; 'I' for Inactive)
REMARK    1  A    between atoms: CD_2  and  CG_4
REMARK    2  A    between atoms: CG_4  and  CB_5
REMARK    3  A    between atoms: CB_5  and  CA_6
REMARK    4  A    between atoms: CA_6  and  N_7
REMARK    5  A    between atoms: CA_6  and  C_16
REMARK    6  A    between atoms: C_8  and  CA_10
REMARK    7  A    between atoms: CA_10  and  CB_12
REMARK    8  A    between atoms: CB_12  and  CG_13
REMARK                            x       y       z     vdW  Elec       q    Type
REMARK                         _______ _______ _______ _____ _____    ______ ____
ROOT
ATOM      6  CA  GLN A   2      17.598  68.756  12.142  0.00  0.00    +0.000 C 
ENDROOT
BRANCH   6   7
ATOM      7  N   GLN A   2      18.033  67.820  10.952  0.00  0.00    +0.000 NA
ATOM      8  C   ASP A   1      17.073  67.921   9.946  0.00  0.00    +0.000 C 
ATOM      9  O   ASP A   1      16.516  69.004   9.645  0.00  0.00    +0.000 OA
BRANCH   8  10
ATOM     10  CA  ASP A   1      17.195  66.961   8.660  0.00  0.00    +0.000 C 
ATOM     11  N   ASP A   1      18.265  66.029   9.349  0.00  0.00    +0.000 NA
BRANCH  10  12
ATOM     12  CB  ASP A   1      15.947  66.004   9.143  0.00  0.00    +0.000 C 
BRANCH  12  13
ATOM     13  CG  ASP A   1      14.810  66.415   8.270  0.00  0.00    +0.000 C 
ATOM     14  OD1 ASP A   1      14.681  65.851   7.161  0.00  0.00    +0.000 OA
ATOM     15  OD2 ASP A   1      13.779  67.154   8.811  0.00  0.00    +0.000 OA
ENDBRANCH  12  13
ENDBRANCH  10  12
ENDBRANCH   8  10
ENDBRANCH   6   7
BRANCH   6  16
ATOM     16  C   GLN A   2      16.941  67.545  12.978  0.00  0.00    +0.000 C 
ATOM     17  O   GLN A   2      17.541  67.460  14.076  0.00  0.00    +0.000 OA
ATOM     18  OXT GLN A   2      15.597  67.357  12.917  0.00  0.00    +0.000 OA
ENDBRANCH   6  16
BRANCH   6   5
ATOM      5  CB  GLN A   2      19.056  68.587  12.885  0.00  0.00    +0.000 C 
BRANCH   5   4
ATOM      4  CG  GLN A   2      19.615  69.985  12.671  0.00  0.00    +0.000 C 
BRANCH   4   2
ATOM      1  NE2 GLN A   2      19.998  69.874  14.884  0.00  0.00    +0.000 NA
ATOM      2  CD  GLN A   2      20.065  70.444  14.026  0.00  0.00    +0.000 C 
ATOM      3  OE1 GLN A   2      20.478  71.646  14.014  0.00  0.00    +0.000 OA
ENDBRANCH   4   2
ENDBRANCH   5   4
ENDBRANCH   6   5
TORSDOF 8
ENDMDL
MODEL 4
REMARK VINA RESULT:      -4.7     45.384     48.623
REMARK  Name = 
REMARK  8 active torsions:
REMARK  status: ('A' for Active; 'I' for Inactive)
REMARK    1  A    between atoms: CD_2  and  CG_4
REMARK    2  A    between atoms: CG_4  and  CB_5
REMARK    3  A    between atoms: CB_5  and  CA_6
REMARK    4  A    between atoms: CA_6  and  N_7
REMARK    5  A    between atoms: CA_6  and  C_16
REMARK    6  A    between atoms: C_8  and  CA_10
REMARK    7  A    between atoms: CA_10  and  CB_12
REMARK    8  A    between atoms: CB_12  and  CG_13
REMARK                            x       y       z     vdW  Elec       q    Type
REMARK                         _______ _______ _______ _____ _____    ______ ____
ROOT
ATOM      6  CA  GLN A   2     -10.565  72.094  20.947  0.00  0.00    +0.000 C 
ENDROOT
BRANCH   6   7
ATOM      7  N   GLN A   2     -10.441  72.933  22.274  0.00  0.00    +0.000 NA
ATOM      8  C   ASP A   1     -11.067  72.224  23.298  0.00  0.00    +0.000 C 
ATOM      9  O   ASP A   1     -10.994  70.977  23.403  0.00  0.00    +0.000 OA
BRANCH   8  10
ATOM     10  CA  ASP A   1     -11.210  72.916  24.743  0.00  0.00    +0.000 C 
ATOM     11  N   ASP A   1     -10.448  74.222  24.291  0.00  0.00    +0.000 NA
BRANCH  10  12
ATOM     12  CB  ASP A   1     -12.679  73.567  24.388  0.00  0.00    +0.000 C 
BRANCH  12  13
ATOM     13  CG  ASP A   1     -13.510  73.276  25.592  0.00  0.00    +0.000 C 
ATOM     14  OD1 ASP A   1     -14.028  74.240  26.200  0.00  0.00    +0.000 OA
ATOM     15  OD2 ASP A   1     -13.936  71.986  25.821  0.00  0.00    +0.000 OA
ENDBRANCH  12  13
ENDBRANCH  10  12
ENDBRANCH   8  10
ENDBRANCH   6   7
BRANCH   6  16
ATOM     16  C   GLN A   2     -11.889  72.878  20.465  0.00  0.00    +0.000 C 
ATOM     17  O   GLN A   2     -11.530  73.945  19.914  0.00  0.00    +0.000 OA
ATOM     18  OXT GLN A   2     -12.928  72.163  19.960  0.00  0.00    +0.000 OA
ENDBRANCH   6  16
BRANCH   6   5
ATOM      5  CB  GLN A   2      -9.565  73.117  20.136  0.00  0.00    +0.000 C 
BRANCH   5   4
ATOM      4  CG  GLN A   2      -8.230  72.691  20.728  0.00  0.00    +0.000 C 
BRANCH   4   2
ATOM      1  NE2 GLN A   2      -6.772  72.327  19.054  0.00  0.00    +0.000 NA
ATOM      2  CD  GLN A   2      -7.208  73.022  19.681  0.00  0.00    +0.000 C 
ATOM      3  OE1 GLN A   2      -6.886  74.252  19.696  0.00  0.00    +0.000 OA
ENDBRANCH   4   2
ENDBRANCH   5   4
ENDBRANCH   6   5
TORSDOF 8
ENDMDL
MODEL 5
REMARK VINA RESULT:      -4.7     11.297     13.124
REMARK  Name = 
REMARK  8 active torsions:
REMARK  status: ('A' for Active; 'I' for Inactive)
REMARK    1  A    between atoms: CD_2  and  CG_4
REMARK    2  A    between atoms: CG_4  and  CB_5
REMARK    3  A    between atoms: CB_5  and  CA_6
REMARK    4  A    between atoms: CA_6  and  N_7
REMARK    5  A    between atoms: CA_6  and  C_16
REMARK    6  A    between atoms: C_8  and  CA_10
REMARK    7  A    between atoms: CA_10  and  CB_12
REMARK    8  A    between atoms: CB_12  and  CG_13
REMARK                            x       y       z     vdW  Elec       q    Type
REMARK                         _______ _______ _______ _____ _____    ______ ____
ROOT
ATOM      6  CA  GLN A   2      27.177  48.060  -0.272  0.00  0.00    +0.000 C 
ENDROOT
BRANCH   6   7
ATOM      7  N   GLN A   2      26.502  46.681   0.081  0.00  0.00    +0.000 NA
ATOM      8  C   ASP A   1      27.135  46.163   1.210  0.00  0.00    +0.000 C 
ATOM      9  O   ASP A   1      27.504  46.880   2.171  0.00  0.00    +0.000 OA
BRANCH   8  10
ATOM     10  CA  ASP A   1      26.734  44.689   1.714  0.00  0.00    +0.000 C 
ATOM     11  N   ASP A   1      26.873  44.063   0.273  0.00  0.00    +0.000 NA
BRANCH  10  12
ATOM     12  CB  ASP A   1      28.285  44.303   2.107  0.00  0.00    +0.000 C 
BRANCH  12  13
ATOM     13  CG  ASP A   1      28.162  43.037   2.886  0.00  0.00    +0.000 C 
ATOM     14  OD1 ASP A   1      29.056  42.171   2.755  0.00  0.00    +0.000 OA
ATOM     15  OD2 ASP A   1      27.268  42.976   3.934  0.00  0.00    +0.000 OA
ENDBRANCH  12  13
ENDBRANCH  10  12
ENDBRANCH   8  10
ENDBRANCH   6   7
BRANCH   6  16
ATOM     16  C   GLN A   2      27.050  47.820  -1.862  0.00  0.00    +0.000 C 
ATOM     17  O   GLN A   2      27.704  48.719  -2.443  0.00  0.00    +0.000 OA
ATOM     18  OXT GLN A   2      27.062  46.548  -2.338  0.00  0.00    +0.000 OA
ENDBRANCH   6  16
BRANCH   6   5
ATOM      5  CB  GLN A   2      25.738  48.852  -0.194  0.00  0.00    +0.000 C 
BRANCH   5   4
ATOM      4  CG  GLN A   2      26.065  49.869   0.890  0.00  0.00    +0.000 C 
BRANCH   4   2
ATOM      1  NE2 GLN A   2      24.423  48.869   2.057  0.00  0.00    +0.000 NA
ATOM      2  CD  GLN A   2      24.970  49.731   1.905  0.00  0.00    +0.000 C 
ATOM      3  OE1 GLN A   2      24.742  50.822   2.517  0.00  0.00    +0.000 OA
ENDBRANCH   4   2
ENDBRANCH   5   4
ENDBRANCH   6   5
TORSDOF 8
ENDMDL
MODEL 6
REMARK VINA RESULT:      -4.7     31.818     33.536
REMARK  Name = 
REMARK  8 active torsions:
REMARK  status: ('A' for Active; 'I' for Inactive)
REMARK    1  A    between atoms: CD_2  and  CG_4
REMARK    2  A    between atoms: CG_4  and  CB_5
REMARK    3  A    between atoms: CB_5  and  CA_6
REMARK    4  A    between atoms: CA_6  and  N_7
REMARK    5  A    between atoms: CA_6  and  C_16
REMARK    6  A    between atoms: C_8  and  CA_10
REMARK    7  A    between atoms: CA_10  and  CB_12
REMARK    8  A    between atoms: CB_12  and  CG_13
REMARK                            x       y       z     vdW  Elec       q    Type
REMARK                         _______ _______ _______ _____ _____    ______ ____
ROOT
ATOM      6  CA  GLN A   2       5.469  54.761  21.356  0.00  0.00    +0.000 C 
ENDROOT
BRANCH   6   7
ATOM      7  N   GLN A   2       6.951  54.779  21.890  0.00  0.00    +0.000 NA
ATOM      8  C   ASP A   1       6.912  54.749  23.283  0.00  0.00    +0.000 C 
ATOM      9  O   ASP A   1       6.083  54.060  23.924  0.00  0.00    +0.000 OA
BRANCH   8  10
ATOM     10  CA  ASP A   1       8.291  54.897  24.099  0.00  0.00    +0.000 C 
ATOM     11  N   ASP A   1       8.723  53.407  23.811  0.00  0.00    +0.000 NA
BRANCH  10  12
ATOM     12  CB  ASP A   1       9.111  55.462  22.790  0.00  0.00    +0.000 C 
BRANCH  12  13
ATOM     13  CG  ASP A   1      10.384  55.995  23.357  0.00  0.00    +0.000 C 
ATOM     14  OD1 ASP A   1      11.167  56.598  22.590  0.00  0.00    +0.000 OA
ATOM     15  OD2 ASP A   1      10.524  56.088  24.725  0.00  0.00    +0.000 OA
ENDBRANCH  12  13
ENDBRANCH  10  12
ENDBRANCH   8  10
ENDBRANCH   6   7
BRANCH   6  16
ATOM     16  C   GLN A   2       5.336  56.367  21.400  0.00  0.00    +0.000 C 
ATOM     17  O   GLN A   2       5.670  56.816  20.278  0.00  0.00    +0.000 OA
ATOM     18  OXT GLN A   2       4.297  56.922  22.077  0.00  0.00    +0.000 OA
ENDBRANCH   6  16
BRANCH   6   5
ATOM      5  CB  GLN A   2       5.971  54.765  19.789  0.00  0.00    +0.000 C 
BRANCH   5   4
ATOM      4  CG  GLN A   2       6.671  53.414  19.743  0.00  0.00    +0.000 C 
BRANCH   4   2
ATOM      1  NE2 GLN A   2       5.072  52.937  18.235  0.00  0.00    +0.000 NA
ATOM      2  CD  GLN A   2       5.852  52.576  18.808  0.00  0.00    +0.000 C 
ATOM      3  OE1 GLN A   2       6.183  51.349  18.847  0.00  0.00    +0.000 OA
ENDBRANCH   4   2
ENDBRANCH   5   4
ENDBRANCH   6   5
TORSDOF 8
ENDMDL
MODEL 7
REMARK VINA RESULT:      -4.7      2.277      5.808
REMARK  Name = 
REMARK  8 active torsions:
REMARK  status: ('A' for Active; 'I' for Inactive)
REMARK    1  A    between atoms: CD_2  and  CG_4
REMARK    2  A    between atoms: CG_4  and  CB_5
REMARK    3  A    between atoms: CB_5  and  CA_6
REMARK    4  A    between atoms: CA_6  and  N_7
REMARK    5  A    between atoms: CA_6  and  C_16
REMARK    6  A    between atoms: C_8  and  CA_10
REMARK    7  A    between atoms: CA_10  and  CB_12
REMARK    8  A    between atoms: CB_12  and  CG_13
REMARK                            x       y       z     vdW  Elec       q    Type
REMARK                         _______ _______ _______ _____ _____    ______ ____
ROOT
ATOM      6  CA  GLN A   2      22.123  56.399  -4.739  0.00  0.00    +0.000 C 
ENDROOT
BRANCH   6   7
ATOM      7  N   GLN A   2      23.596  56.956  -4.739  0.00  0.00    +0.000 NA
ATOM      8  C   ASP A   1      23.813  57.613  -5.949  0.00  0.00    +0.000 C 
ATOM      9  O   ASP A   1      22.937  58.317  -6.507  0.00  0.00    +0.000 OA
BRANCH   8  10
ATOM     10  CA  ASP A   1      25.289  58.165  -6.277  0.00  0.00    +0.000 C 
ATOM     11  N   ASP A   1      25.663  58.323  -4.752  0.00  0.00    +0.000 NA
BRANCH  10  12
ATOM     12  CB  ASP A   1      25.936  56.655  -6.352  0.00  0.00    +0.000 C 
BRANCH  12  13
ATOM     13  CG  ASP A   1      25.670  56.211  -7.750  0.00  0.00    +0.000 C 
ATOM     14  OD1 ASP A   1      26.362  56.703  -8.669  0.00  0.00    +0.000 OA
ATOM     15  OD2 ASP A   1      24.914  55.079  -7.965  0.00  0.00    +0.000 OA
ENDBRANCH  12  13
ENDBRANCH  10  12
ENDBRANCH   8  10
ENDBRANCH   6   7
BRANCH   6  16
ATOM     16  C   GLN A   2      22.587  54.910  -5.147  0.00  0.00    +0.000 C 
ATOM     17  O   GLN A   2      22.581  54.203  -4.111  0.00  0.00    +0.000 OA
ATOM     18  OXT GLN A   2      22.168  54.392  -6.331  0.00  0.00    +0.000 OA
ENDBRANCH   6  16
BRANCH   6   5
ATOM      5  CB  GLN A   2      22.186  56.066  -3.130  0.00  0.00    +0.000 C 
BRANCH   5   4
ATOM      4  CG  GLN A   2      22.383  57.473  -2.586  0.00  0.00    +0.000 C 
BRANCH   4   2
ATOM      1  NE2 GLN A   2      23.806  57.328  -0.850  0.00  0.00    +0.000 NA
ATOM      2  CD  GLN A   2      22.823  57.290  -1.164  0.00  0.00    +0.000 C 
ATOM      3  OE1 GLN A   2      21.851  57.013  -0.392  0.00  0.00    +0.000 OA
ENDBRANCH   4   2
ENDBRANCH   5   4
ENDBRANCH   6   5
TORSDOF 8
ENDMDL
MODEL 8
REMARK VINA RESULT:      -4.7     14.165     15.658
REMARK  Name = 
REMARK  8 active torsions:
REMARK  status: ('A' for Active; 'I' for Inactive)
REMARK    1  A    between atoms: CD_2  and  CG_4
REMARK    2  A    between atoms: CG_4  and  CB_5
REMARK    3  A    between atoms: CB_5  and  CA_6
REMARK    4  A    between atoms: CA_6  and  N_7
REMARK    5  A    between atoms: CA_6  and  C_16
REMARK    6  A    between atoms: C_8  and  CA_10
REMARK    7  A    between atoms: CA_10  and  CB_12
REMARK    8  A    between atoms: CB_12  and  CG_13
REMARK                            x       y       z     vdW  Elec       q    Type
REMARK                         _______ _______ _______ _____ _____    ______ ____
ROOT
ATOM      6  CA  GLN A   2      16.627  59.507 -16.991  0.00  0.00    +0.000 C 
ENDROOT
BRANCH   6   7
ATOM      7  N   GLN A   2      16.446  59.875 -18.512  0.00  0.00    +0.000 NA
ATOM      8  C   ASP A   1      15.797  58.814 -19.142  0.00  0.00    +0.000 C 
ATOM      9  O   ASP A   1      14.871  58.166 -18.599  0.00  0.00    +0.000 OA
BRANCH   8  10
ATOM     10  CA  ASP A   1      15.604  58.864 -20.739  0.00  0.00    +0.000 C 
ATOM     11  N   ASP A   1      15.379  60.425 -20.751  0.00  0.00    +0.000 NA
BRANCH  10  12
ATOM     12  CB  ASP A   1      17.217  59.024 -21.020  0.00  0.00    +0.000 C 
BRANCH  12  13
ATOM     13  CG  ASP A   1      17.705  57.622 -21.163  0.00  0.00    +0.000 C 
ATOM     14  OD1 ASP A   1      18.622  57.235 -20.405  0.00  0.00    +0.000 OA
ATOM     15  OD2 ASP A   1      16.953  56.717 -21.881  0.00  0.00    +0.000 OA
ENDBRANCH  12  13
ENDBRANCH  10  12
ENDBRANCH   8  10
ENDBRANCH   6   7
BRANCH   6  16
ATOM     16  C   GLN A   2      18.201  59.854 -16.997  0.00  0.00    +0.000 C 
ATOM     17  O   GLN A   2      18.810  58.887 -17.514  0.00  0.00    +0.000 OA
ATOM     18  OXT GLN A   2      18.592  61.128 -17.260  0.00  0.00    +0.000 OA
ENDBRANCH   6  16
BRANCH   6   5
ATOM      5  CB  GLN A   2      16.211  61.025 -16.513  0.00  0.00    +0.000 C 
BRANCH   5   4
ATOM      4  CG  GLN A   2      15.398  60.688 -15.272  0.00  0.00    +0.000 C 
BRANCH   4   2
ATOM      1  NE2 GLN A   2      16.015  62.721 -14.536  0.00  0.00    +0.000 NA
ATOM      2  CD  GLN A   2      15.725  61.764 -14.280  0.00  0.00    +0.000 C 
ATOM      3  OE1 GLN A   2      15.671  61.345 -13.081  0.00  0.00    +0.000 OA
ENDBRANCH   4   2
ENDBRANCH   5   4
ENDBRANCH   6   5
TORSDOF 8
ENDMDL
MODEL 9
REMARK VINA RESULT:      -4.6     10.568     11.804
REMARK  Name = 
REMARK  8 active torsions:
REMARK  status: ('A' for Active; 'I' for Inactive)
REMARK    1  A    between atoms: CD_2  and  CG_4
REMARK    2  A    between atoms: CG_4  and  CB_5
REMARK    3  A    between atoms: CB_5  and  CA_6
REMARK    4  A    between atoms: CA_6  and  N_7
REMARK    5  A    between atoms: CA_6  and  C_16
REMARK    6  A    between atoms: C_8  and  CA_10
REMARK    7  A    between atoms: CA_10  and  CB_12
REMARK    8  A    between atoms: CB_12  and  CG_13
REMARK                            x       y       z     vdW  Elec       q    Type
REMARK                         _______ _______ _______ _____ _____    ______ ____
ROOT
ATOM      6  CA  GLN A   2      25.949  50.557   3.021  0.00  0.00    +0.000 C 
ENDROOT
BRANCH   6   7
ATOM      7  N   GLN A   2      24.745  51.187   3.819  0.00  0.00    +0.000 NA
ATOM      8  C   ASP A   1      24.805  52.572   3.674  0.00  0.00    +0.000 C 
ATOM      9  O   ASP A   1      25.129  53.130   2.598  0.00  0.00    +0.000 OA
BRANCH   8  10
ATOM     10  CA  ASP A   1      23.768  53.482   4.502  0.00  0.00    +0.000 C 
ATOM     11  N   ASP A   1      23.413  52.318   5.506  0.00  0.00    +0.000 NA
BRANCH  10  12
ATOM     12  CB  ASP A   1      24.940  54.075   5.494  0.00  0.00    +0.000 C 
BRANCH  12  13
ATOM     13  CG  ASP A   1      24.262  55.168   6.250  0.00  0.00    +0.000 C 
ATOM     14  OD1 ASP A   1      23.391  55.844   5.658  0.00  0.00    +0.000 OA
ATOM     15  OD2 ASP A   1      24.376  55.208   7.623  0.00  0.00    +0.000 OA
ENDBRANCH  12  13
ENDBRANCH  10  12
ENDBRANCH   8  10
ENDBRANCH   6   7
BRANCH   6  16
ATOM     16  C   GLN A   2      26.432  49.663   4.273  0.00  0.00    +0.000 C 
ATOM     17  O   GLN A   2      27.196  48.768   3.839  0.00  0.00    +0.000 OA
ATOM     18  OXT GLN A   2      26.698  50.276   5.455  0.00  0.00    +0.000 OA
ENDBRANCH   6  16
BRANCH   6   5
ATOM      5  CB  GLN A   2      25.000  49.355   2.423  0.00  0.00    +0.000 C 
BRANCH   5   4
ATOM      4  CG  GLN A   2      25.489  49.338   0.982  0.00  0.00    +0.000 C 
BRANCH   4   2
ATOM      1  NE2 GLN A   2      25.343  47.108   1.240  0.00  0.00    +0.000 NA
ATOM      2  CD  GLN A   2      25.508  47.891   0.587  0.00  0.00    +0.000 C 
ATOM      3  OE1 GLN A   2      25.821  47.731  -0.635  0.00  0.00    +0.000 OA
ENDBRANCH   4   2
ENDBRANCH   5   4
ENDBRANCH   6   5
TORSDOF 8
ENDMDL
MODEL 10
REMARK VINA RESULT:      -4.6     19.162     21.775
REMARK  Name = 
REMARK  8 active torsions:
REMARK  status: ('A' for Active; 'I' for Inactive)
REMARK    1  A    between atoms: CD_2  and  CG_4
REMARK    2  A    between atoms: CG_4  and  CB_5
REMARK    3  A    between atoms: CB_5  and  CA_6
REMARK    4  A    between atoms: CA_6  and  N_7
REMARK    5  A    between atoms: CA_6  and  C_16
REMARK    6  A    between atoms: C_8  and  CA_10
REMARK    7  A    between atoms: CA_10  and  CB_12
REMARK    8  A    between atoms: CB_12  and  CG_13
REMARK                            x       y       z     vdW  Elec       q    Type
REMARK                         _______ _______ _______ _____ _____    ______ ____
ROOT
ATOM      6  CA  GLN A   2      18.065  66.752   9.205  0.00  0.00    +0.000 C 
ENDROOT
BRANCH   6   7
ATOM      7  N   GLN A   2      17.820  66.619  10.756  0.00  0.00    +0.000 NA
ATOM      8  C   ASP A   1      17.412  67.860  11.240  0.00  0.00    +0.000 C 
ATOM      9  O   ASP A   1      16.640  68.617  10.604  0.00  0.00    +0.000 OA
BRANCH   8  10
ATOM     10  CA  ASP A   1      17.222  68.048  12.827  0.00  0.00    +0.000 C 
ATOM     11  N   ASP A   1      15.751  67.479  12.807  0.00  0.00    +0.000 NA
BRANCH  10  12
ATOM     12  CB  ASP A   1      17.863  66.572  13.170  0.00  0.00    +0.000 C 
BRANCH  12  13
ATOM     13  CG  ASP A   1      18.544  66.764  14.483  0.00  0.00    +0.000 C 
ATOM     14  OD1 ASP A   1      18.474  67.889  15.027  0.00  0.00    +0.000 OA
ATOM     15  OD2 ASP A   1      18.952  65.659  15.198  0.00  0.00    +0.000 OA
ENDBRANCH  12  13
ENDBRANCH  10  12
ENDBRANCH   8  10
ENDBRANCH   6   7
BRANCH   6  16
ATOM     16  C   GLN A   2      19.284  65.696   9.213  0.00  0.00    +0.000 C 
ATOM     17  O   GLN A   2      19.413  65.260  10.381  0.00  0.00    +0.000 OA
ATOM     18  OXT GLN A   2      19.439  64.864   8.150  0.00  0.00    +0.000 OA
ENDBRANCH   6  16
BRANCH   6   5
ATOM      5  CB  GLN A   2      16.952  65.588   8.870  0.00  0.00    +0.000 C 
BRANCH   5   4
ATOM      4  CG  GLN A   2      16.053  66.363   7.918  0.00  0.00    +0.000 C 
BRANCH   4   2
ATOM      1  NE2 GLN A   2      13.883  66.883   8.200  0.00  0.00    +0.000 NA
ATOM      2  CD  GLN A   2      14.727  66.454   8.612  0.00  0.00    +0.000 C 
ATOM      3  OE1 GLN A   2      14.774  66.002   9.800  0.00  0.00    +0.000 OA
ENDBRANCH   4   2
ENDBRANCH   5   4
ENDBRANCH   6   5
TORSDOF 8
ENDMDL
