MODEL 1
REMARK VINA RESULT:      -5.1      0.000      0.000
REMARK  Name = 
REMARK  9 active torsions:
REMARK  status: ('A' for Active; 'I' for Inactive)
REMARK    1  A    between atoms: CE_2  and  CD_3
REMARK    2  A    between atoms: CD_3  and  CG_4
REMARK    3  A    between atoms: CG_4  and  CB_5
REMARK    4  A    between atoms: CB_5  and  CA_6
REMARK    5  A    between atoms: CA_6  and  N_7
REMARK    6  A    between atoms: CA_6  and  C_16
REMARK    7  A    between atoms: C_8  and  CA_10
REMARK    8  A    between atoms: CA_10  and  CB_12
REMARK    9  A    between atoms: CB_12  and  CG_13
REMARK                            x       y       z     vdW  Elec       q    Type
REMARK                         _______ _______ _______ _____ _____    ______ ____
ROOT
ATOM      6  CA  LYS A   2      18.070  66.926  14.079  0.00  0.00    +0.000 C 
ENDROOT
BRANCH   6   7
ATOM      7  N   LYS A   2      17.502  66.192  12.797  0.00  0.00    +0.000 NA
ATOM      8  C   ASP A   1      16.791  67.044  11.995  0.00  0.00    +0.000 C 
ATOM      9  O   ASP A   1      15.709  67.445  12.523  0.00  0.00    +0.000 OA
BRANCH   8  10
ATOM     10  CA  ASP A   1      16.723  66.912  10.396  0.00  0.00    +0.000 C 
ATOM     11  N   ASP A   1      16.393  68.441  10.171  0.00  0.00    +0.000 NA
BRANCH  10  12
ATOM     12  CB  ASP A   1      15.122  66.520  10.477  0.00  0.00    +0.000 C 
BRANCH  12  13
ATOM     13  CG  ASP A   1      14.625  66.550   9.094  0.00  0.00    +0.000 C 
ATOM     14  OD1 ASP A   1      13.585  67.243   8.883  0.00  0.00    +0.000 OA
ATOM     15  OD2 ASP A   1      15.273  66.000   8.006  0.00  0.00    +0.000 OA
ENDBRANCH  12  13
ENDBRANCH  10  12
ENDBRANCH   8  10
ENDBRANCH   6   7
BRANCH   6  16
ATOM     16  C   LYS A   2      19.104  65.753  14.476  0.00  0.00    +0.000 C 
ATOM     17  O   LYS A   2      19.171  65.356  15.631  0.00  0.00    +0.000 OA
ATOM     18  OXT LYS A   2      18.872  64.743  13.523  0.00  0.00    +0.000 OA
ENDBRANCH   6  16
BRANCH   6   5
ATOM      5  CB  LYS A   2      19.151  67.790  13.182  0.00  0.00    +0.000 C 
BRANCH   5   4
ATOM      4  CG  LYS A   2      19.559  68.921  14.118  0.00  0.00    +0.000 C 
BRANCH   4   3
ATOM      3  CD  LYS A   2      19.829  70.190  13.358  0.00  0.00    +0.000 C 
BRANCH   3   2
ATOM      1  NZ  LYS A   2      20.576  71.873  14.183  0.00  0.00    +0.000 NA
ATOM      2  CE  LYS A   2      20.553  71.206  14.192  0.00  0.00    +0.000 C 
ENDBRANCH   3   2
ENDBRANCH   4   3
ENDBRANCH   5   4
ENDBRANCH   6   5
TORSDOF 9
ENDMDL
MODEL 2
REMARK VINA RESULT:      -5.0      2.123      5.362
REMARK  Name = 
REMARK  9 active torsions:
REMARK  status: ('A' for Active; 'I' for Inactive)
REMARK    1  A    between atoms: CE_2  and  CD_3
REMARK    2  A    between atoms: CD_3  and  CG_4
REMARK    3  A    between atoms: CG_4  and  CB_5
REMARK    4  A    between atoms: CB_5  and  CA_6
REMARK    5  A    between atoms: CA_6  and  N_7
REMARK    6  A    between atoms: CA_6  and  C_16
REMARK    7  A    between atoms: C_8  and  CA_10
REMARK    8  A    between atoms: CA_10  and  CB_12
REMARK    9  A    between atoms: CB_12  and  CG_13
REMARK                            x       y       z     vdW  Elec       q    Type
REMARK                         _______ _______ _______ _____ _____    ______ ____
ROOT
ATOM      6  CA  LYS A   2      17.386  67.245  11.611  0.00  0.00    +0.000 C 
ENDROOT
BRANCH   6   7
ATOM      7  N   LYS A   2      17.709  66.673  13.051  0.00  0.00    +0.000 NA
ATOM      8  C   ASP A   1      18.834  65.893  13.048  0.00  0.00    +0.000 C 
ATOM      9  O   ASP A   1      18.693  64.809  12.401  0.00  0.00    +0.000 OA
BRANCH   8  10
ATOM     10  CA  ASP A   1      19.840  65.778  14.294  0.00  0.00    +0.000 C 
ATOM     11  N   ASP A   1      18.994  64.659  15.020  0.00  0.00    +0.000 NA
BRANCH  10  12
ATOM     12  CB  ASP A   1      19.031  66.981  15.084  0.00  0.00    +0.000 C 
BRANCH  12  13
ATOM     13  CG  ASP A   1      20.061  67.884  15.616  0.00  0.00    +0.000 C 
ATOM     14  OD1 ASP A   1      19.649  68.969  16.127  0.00  0.00    +0.000 OA
ATOM     15  OD2 ASP A   1      21.404  67.582  15.721  0.00  0.00    +0.000 OA
ENDBRANCH  12  13
ENDBRANCH  10  12
ENDBRANCH   8  10
ENDBRANCH   6   7
BRANCH   6  16
ATOM     16  C   LYS A   2      15.817  66.869  11.651  0.00  0.00    +0.000 C 
ATOM     17  O   LYS A   2      15.159  67.075  12.661  0.00  0.00    +0.000 OA
ATOM     18  OXT LYS A   2      15.288  67.444  10.481  0.00  0.00    +0.000 OA
ENDBRANCH   6  16
BRANCH   6   5
ATOM      5  CB  LYS A   2      17.195  68.775  12.194  0.00  0.00    +0.000 C 
BRANCH   5   4
ATOM      4  CG  LYS A   2      18.297  69.559  11.491  0.00  0.00    +0.000 C 
BRANCH   4   3
ATOM      3  CD  LYS A   2      19.446  69.841  12.418  0.00  0.00    +0.000 C 
BRANCH   3   2
ATOM      1  NZ  LYS A   2      21.235  68.910  12.392  0.00  0.00    +0.000 NA
ATOM      2  CE  LYS A   2      20.664  69.037  12.071  0.00  0.00    +0.000 C 
ENDBRANCH   3   2
ENDBRANCH   4   3
ENDBRANCH   5   4
ENDBRANCH   6   5
TORSDOF 9
ENDMDL
MODEL 3
REMARK VINA RESULT:      -4.9     22.574     24.379
REMARK  Name = 
REMARK  9 active torsions:
REMARK  status: ('A' for Active; 'I' for Inactive)
REMARK    1  A    between atoms: CE_2  and  CD_3
REMARK    2  A    between atoms: CD_3  and  CG_4
REMARK    3  A    between atoms: CG_4  and  CB_5
REMARK    4  A    between atoms: CB_5  and  CA_6
REMARK    5  A    between atoms: CA_6  and  N_7
REMARK    6  A    between atoms: CA_6  and  C_16
REMARK    7  A    between atoms: C_8  and  CA_10
REMARK    8  A    between atoms: CA_10  and  CB_12
REMARK    9  A    between atoms: CB_12  and  CG_13
REMARK                            x       y       z     vdW  Elec       q    Type
REMARK                         _______ _______ _______ _____ _____    ______ ____
ROOT
ATOM      6  CA  LYS A   2       7.084  82.880  25.983  0.00  0.00    +0.000 C 
ENDROOT
BRANCH   6   7
ATOM      7  N   LYS A   2       7.328  81.867  27.175  0.00  0.00    +0.000 NA
ATOM      8  C   ASP A   1       7.544  82.518  28.360  0.00  0.00    +0.000 C 
ATOM      9  O   ASP A   1       8.636  83.164  28.387  0.00  0.00    +0.000 OA
BRANCH   8  10
ATOM     10  CA  ASP A   1       7.100  81.935  29.788  0.00  0.00    +0.000 C 
ATOM     11  N   ASP A   1       8.093  80.708  29.724  0.00  0.00    +0.000 NA
BRANCH  10  12
ATOM     12  CB  ASP A   1       5.890  81.065  29.080  0.00  0.00    +0.000 C 
BRANCH  12  13
ATOM     13  CG  ASP A   1       4.715  81.218  29.950  0.00  0.00    +0.000 C 
ATOM     14  OD1 ASP A   1       4.464  82.393  30.356  0.00  0.00    +0.000 OA
ATOM     15  OD2 ASP A   1       3.806  80.221  30.240  0.00  0.00    +0.000 OA
ENDBRANCH  12  13
ENDBRANCH  10  12
ENDBRANCH   8  10
ENDBRANCH   6   7
BRANCH   6  16
ATOM     16  C   LYS A   2       8.203  82.240  25.013  0.00  0.00    +0.000 C 
ATOM     17  O   LYS A   2       9.327  82.721  24.966  0.00  0.00    +0.000 OA
ATOM     18  OXT LYS A   2       8.169  80.862  25.299  0.00  0.00    +0.000 OA
ENDBRANCH   6  16
BRANCH   6   5
ATOM      5  CB  LYS A   2       5.833  81.983  25.394  0.00  0.00    +0.000 C 
BRANCH   5   4
ATOM      4  CG  LYS A   2       4.615  82.859  25.661  0.00  0.00    +0.000 C 
BRANCH   4   3
ATOM      3  CD  LYS A   2       4.844  84.272  25.199  0.00  0.00    +0.000 C 
BRANCH   3   2
ATOM      1  NZ  LYS A   2       4.046  84.837  23.435  0.00  0.00    +0.000 NA
ATOM      2  CE  LYS A   2       4.494  84.458  23.753  0.00  0.00    +0.000 C 
ENDBRANCH   3   2
ENDBRANCH   4   3
ENDBRANCH   5   4
ENDBRANCH   6   5
TORSDOF 9
ENDMDL
MODEL 4
REMARK VINA RESULT:      -4.8      2.463      5.752
REMARK  Name = 
REMARK  9 active torsions:
REMARK  status: ('A' for Active; 'I' for Inactive)
REMARK    1  A    between atoms: CE_2  and  CD_3
REMARK    2  A    between atoms: CD_3  and  CG_4
REMARK    3  A    between atoms: CG_4  and  CB_5
REMARK    4  A    between atoms: CB_5  and  CA_6
REMARK    5  A    between atoms: CA_6  and  N_7
REMARK    6  A    between atoms: CA_6  and  C_16
REMARK    7  A    between atoms: C_8  and  CA_10
REMARK    8  A    between atoms: CA_10  and  CB_12
REMARK    9  A    between atoms: CB_12  and  CG_13
REMARK                            x       y       z     vdW  Elec       q    Type
REMARK                         _______ _______ _______ _____ _____    ______ ____
ROOT
ATOM      6  CA  LYS A   2      17.519  66.905  11.810  0.00  0.00    +0.000 C 
ENDROOT
BRANCH   6   7
ATOM      7  N   LYS A   2      17.586  66.216  13.234  0.00  0.00    +0.000 NA
ATOM      8  C   ASP A   1      18.812  65.655  13.471  0.00  0.00    +0.000 C 
ATOM      9  O   ASP A   1      19.061  64.658  12.726  0.00  0.00    +0.000 OA
BRANCH   8  10
ATOM     10  CA  ASP A   1      19.480  65.560  14.927  0.00  0.00    +0.000 C 
ATOM     11  N   ASP A   1      20.899  66.049  14.433  0.00  0.00    +0.000 NA
BRANCH  10  12
ATOM     12  CB  ASP A   1      19.873  63.978  14.665  0.00  0.00    +0.000 C 
BRANCH  12  13
ATOM     13  CG  ASP A   1      19.415  63.243  15.852  0.00  0.00    +0.000 C 
ATOM     14  OD1 ASP A   1      20.138  63.340  16.890  0.00  0.00    +0.000 OA
ATOM     15  OD2 ASP A   1      18.210  62.578  15.959  0.00  0.00    +0.000 OA
ENDBRANCH  12  13
ENDBRANCH  10  12
ENDBRANCH   8  10
ENDBRANCH   6   7
BRANCH   6  16
ATOM     16  C   LYS A   2      15.912  66.825  11.683  0.00  0.00    +0.000 C 
ATOM     17  O   LYS A   2      15.205  67.059  12.652  0.00  0.00    +0.000 OA
ATOM     18  OXT LYS A   2      15.612  67.592  10.541  0.00  0.00    +0.000 OA
ENDBRANCH   6  16
BRANCH   6   5
ATOM      5  CB  LYS A   2      17.549  68.415  12.469  0.00  0.00    +0.000 C 
BRANCH   5   4
ATOM      4  CG  LYS A   2      18.687  69.101  11.724  0.00  0.00    +0.000 C 
BRANCH   4   3
ATOM      3  CD  LYS A   2      18.242  70.406  11.125  0.00  0.00    +0.000 C 
BRANCH   3   2
ATOM      1  NZ  LYS A   2      17.314  70.460   9.334  0.00  0.00    +0.000 NA
ATOM      2  CE  LYS A   2      17.847  70.263   9.685  0.00  0.00    +0.000 C 
ENDBRANCH   3   2
ENDBRANCH   4   3
ENDBRANCH   5   4
ENDBRANCH   6   5
TORSDOF 9
ENDMDL
MODEL 5
REMARK VINA RESULT:      -4.8     12.622     14.582
REMARK  Name = 
REMARK  9 active torsions:
REMARK  status: ('A' for Active; 'I' for Inactive)
REMARK    1  A    between atoms: CE_2  and  CD_3
REMARK    2  A    between atoms: CD_3  and  CG_4
REMARK    3  A    between atoms: CG_4  and  CB_5
REMARK    4  A    between atoms: CB_5  and  CA_6
REMARK    5  A    between atoms: CA_6  and  N_7
REMARK    6  A    between atoms: CA_6  and  C_16
REMARK    7  A    between atoms: C_8  and  CA_10
REMARK    8  A    between atoms: CA_10  and  CB_12
REMARK    9  A    between atoms: CB_12  and  CG_13
REMARK                            x       y       z     vdW  Elec       q    Type
REMARK                         _______ _______ _______ _____ _____    ______ ____
ROOT
ATOM      6  CA  LYS A   2       8.677  58.323   8.681  0.00  0.00    +0.000 C 
ENDROOT
BRANCH   6   7
ATOM      7  N   LYS A   2       9.677  58.468   7.463  0.00  0.00    +0.000 NA
ATOM      8  C   ASP A   1      10.504  57.383   7.350  0.00  0.00    +0.000 C 
ATOM      9  O   ASP A   1      11.329  57.278   8.309  0.00  0.00    +0.000 OA
BRANCH   8  10
ATOM     10  CA  ASP A   1      11.062  56.832   5.950  0.00  0.00    +0.000 C 
ATOM     11  N   ASP A   1      11.407  55.399   6.522  0.00  0.00    +0.000 NA
BRANCH  10  12
ATOM     12  CB  ASP A   1      12.571  57.398   6.306  0.00  0.00    +0.000 C 
BRANCH  12  13
ATOM     13  CG  ASP A   1      12.766  58.591   5.470  0.00  0.00    +0.000 C 
ATOM     14  OD1 ASP A   1      12.952  58.387   4.232  0.00  0.00    +0.000 OA
ATOM     15  OD2 ASP A   1      12.629  59.895   5.902  0.00  0.00    +0.000 OA
ENDBRANCH  12  13
ENDBRANCH  10  12
ENDBRANCH   8  10
ENDBRANCH   6   7
BRANCH   6  16
ATOM     16  C   LYS A   2       7.706  59.527   8.221  0.00  0.00    +0.000 C 
ATOM     17  O   LYS A   2       6.634  59.703   8.782  0.00  0.00    +0.000 OA
ATOM     18  OXT LYS A   2       8.542  60.659   8.189  0.00  0.00    +0.000 OA
ENDBRANCH   6  16
BRANCH   6   5
ATOM      5  CB  LYS A   2       7.824  57.135   7.921  0.00  0.00    +0.000 C 
BRANCH   5   4
ATOM      4  CG  LYS A   2       7.565  56.122   9.030  0.00  0.00    +0.000 C 
BRANCH   4   3
ATOM      3  CD  LYS A   2       6.144  56.193   9.516  0.00  0.00    +0.000 C 
BRANCH   3   2
ATOM      1  NZ  LYS A   2       5.656  56.522  11.445  0.00  0.00    +0.000 NA
ATOM      2  CE  LYS A   2       6.054  56.678  10.932  0.00  0.00    +0.000 C 
ENDBRANCH   3   2
ENDBRANCH   4   3
ENDBRANCH   5   4
ENDBRANCH   6   5
TORSDOF 9
ENDMDL
MODEL 6
REMARK VINA RESULT:      -4.7      2.458      5.743
REMARK  Name = 
REMARK  9 active torsions:
REMARK  status: ('A' for Active; 'I' for Inactive)
REMARK    1  A    between atoms: CE_2  and  CD_3
REMARK    2  A    between atoms: CD_3  and  CG_4
REMARK    3  A    between atoms: CG_4  and  CB_5
REMARK    4  A    between atoms: CB_5  and  CA_6
REMARK    5  A    between atoms: CA_6  and  N_7
REMARK    6  A    between atoms: CA_6  and  C_16
REMARK    7  A    between atoms: C_8  and  CA_10
REMARK    8  A    between atoms: CA_10  and  CB_12
REMARK    9  A    between atoms: CB_12  and  CG_13
REMARK                            x       y       z     vdW  Elec       q    Type
REMARK                         _______ _______ _______ _____ _____    ______ ____
ROOT
ATOM      6  CA  LYS A   2      17.523  67.510  11.441  0.00  0.00    +0.000 C 
ENDROOT
BRANCH   6   7
ATOM      7  N   LYS A   2      17.452  67.096  12.968  0.00  0.00    +0.000 NA
ATOM      8  C   ASP A   1      18.528  66.338  13.341  0.00  0.00    +0.000 C 
ATOM      9  O   ASP A   1      18.548  65.190  12.798  0.00  0.00    +0.000 OA
BRANCH   8  10
ATOM     10  CA  ASP A   1      19.172  66.370  14.811  0.00  0.00    +0.000 C 
ATOM     11  N   ASP A   1      18.614  67.809  15.148  0.00  0.00    +0.000 NA
BRANCH  10  12
ATOM     12  CB  ASP A   1      20.575  66.995  14.204  0.00  0.00    +0.000 C 
BRANCH  12  13
ATOM     13  CG  ASP A   1      21.626  66.015  14.516  0.00  0.00    +0.000 C 
ATOM     14  OD1 ASP A   1      22.411  66.315  15.466  0.00  0.00    +0.000 OA
ATOM     15  OD2 ASP A   1      21.734  64.760  13.953  0.00  0.00    +0.000 OA
ENDBRANCH  12  13
ENDBRANCH  10  12
ENDBRANCH   8  10
ENDBRANCH   6   7
BRANCH   6  16
ATOM     16  C   LYS A   2      15.999  67.101  11.105  0.00  0.00    +0.000 C 
ATOM     17  O   LYS A   2      15.165  67.047  11.998  0.00  0.00    +0.000 OA
ATOM     18  OXT LYS A   2      15.644  67.929  10.023  0.00  0.00    +0.000 OA
ENDBRANCH   6  16
BRANCH   6   5
ATOM      5  CB  LYS A   2      17.191  69.086  11.788  0.00  0.00    +0.000 C 
BRANCH   5   4
ATOM      4  CG  LYS A   2      18.409  69.828  11.251  0.00  0.00    +0.000 C 
BRANCH   4   3
ATOM      3  CD  LYS A   2      18.232  70.198   9.804  0.00  0.00    +0.000 C 
BRANCH   3   2
ATOM      1  NZ  LYS A   2      17.040  71.732   9.260  0.00  0.00    +0.000 NA
ATOM      2  CE  LYS A   2      17.548  71.523   9.639  0.00  0.00    +0.000 C 
ENDBRANCH   3   2
ENDBRANCH   4   3
ENDBRANCH   5   4
ENDBRANCH   6   5
TORSDOF 9
ENDMDL
MODEL 7
REMARK VINA RESULT:      -4.6     12.478     13.300
REMARK  Name = 
REMARK  9 active torsions:
REMARK  status: ('A' for Active; 'I' for Inactive)
REMARK    1  A    between atoms: CE_2  and  CD_3
REMARK    2  A    between atoms: CD_3  and  CG_4
REMARK    3  A    between atoms: CG_4  and  CB_5
REMARK    4  A    between atoms: CB_5  and  CA_6
REMARK    5  A    between atoms: CA_6  and  N_7
REMARK    6  A    between atoms: CA_6  and  C_16
REMARK    7  A    between atoms: C_8  and  CA_10
REMARK    8  A    between atoms: CA_10  and  CB_12
REMARK    9  A    between atoms: CB_12  and  CG_13
REMARK                            x       y       z     vdW  Elec       q    Type
REMARK                         _______ _______ _______ _____ _____    ______ ____
ROOT
ATOM      6  CA  LYS A   2      11.595  57.629   8.346  0.00  0.00    +0.000 C 
ENDROOT
BRANCH   6   7
ATOM      7  N   LYS A   2      10.352  58.117   7.496  0.00  0.00    +0.000 NA
ATOM      8  C   ASP A   1       9.473  58.845   8.252  0.00  0.00    +0.000 C 
ATOM      9  O   ASP A   1       8.882  58.155   9.140  0.00  0.00    +0.000 OA
BRANCH   8  10
ATOM     10  CA  ASP A   1       8.587  60.051   7.672  0.00  0.00    +0.000 C 
ATOM     11  N   ASP A   1       7.269  59.591   8.414  0.00  0.00    +0.000 NA
BRANCH  10  12
ATOM     12  CB  ASP A   1       8.212  59.158   6.335  0.00  0.00    +0.000 C 
BRANCH  12  13
ATOM     13  CG  ASP A   1       7.905  60.126   5.272  0.00  0.00    +0.000 C 
ATOM     14  OD1 ASP A   1       8.714  60.164   4.295  0.00  0.00    +0.000 OA
ATOM     15  OD2 ASP A   1       6.754  60.883   5.195  0.00  0.00    +0.000 OA
ENDBRANCH  12  13
ENDBRANCH  10  12
ENDBRANCH   8  10
ENDBRANCH   6   7
BRANCH   6  16
ATOM     16  C   LYS A   2      11.225  56.060   8.262  0.00  0.00    +0.000 C 
ATOM     17  O   LYS A   2      11.375  55.447   7.214  0.00  0.00    +0.000 OA
ATOM     18  OXT LYS A   2      11.871  55.486   9.373  0.00  0.00    +0.000 OA
ENDBRANCH   6  16
BRANCH   6   5
ATOM      5  CB  LYS A   2      12.579  57.629   7.024  0.00  0.00    +0.000 C 
BRANCH   5   4
ATOM      4  CG  LYS A   2      12.578  59.089   6.586  0.00  0.00    +0.000 C 
BRANCH   4   3
ATOM      3  CD  LYS A   2      13.036  59.233   5.161  0.00  0.00    +0.000 C 
BRANCH   3   2
ATOM      1  NZ  LYS A   2      12.080  58.357   3.617  0.00  0.00    +0.000 NA
ATOM      2  CE  LYS A   2      12.028  58.701   4.186  0.00  0.00    +0.000 C 
ENDBRANCH   3   2
ENDBRANCH   4   3
ENDBRANCH   5   4
ENDBRANCH   6   5
TORSDOF 9
ENDMDL
MODEL 8
REMARK VINA RESULT:      -4.5      2.665      3.419
REMARK  Name = 
REMARK  9 active torsions:
REMARK  status: ('A' for Active; 'I' for Inactive)
REMARK    1  A    between atoms: CE_2  and  CD_3
REMARK    2  A    between atoms: CD_3  and  CG_4
REMARK    3  A    between atoms: CG_4  and  CB_5
REMARK    4  A    between atoms: CB_5  and  CA_6
REMARK    5  A    between atoms: CA_6  and  N_7
REMARK    6  A    between atoms: CA_6  and  C_16
REMARK    7  A    between atoms: C_8  and  CA_10
REMARK    8  A    between atoms: CA_10  and  CB_12
REMARK    9  A    between atoms: CB_12  and  CG_13
REMARK                            x       y       z     vdW  Elec       q    Type
REMARK                         _______ _______ _______ _____ _____    ______ ____
ROOT
ATOM      6  CA  LYS A   2      19.838  65.619  13.361  0.00  0.00    +0.000 C 
ENDROOT
BRANCH   6   7
ATOM      7  N   LYS A   2      18.289  65.887  13.175  0.00  0.00    +0.000 NA
ATOM      8  C   ASP A   1      17.966  67.196  13.415  0.00  0.00    +0.000 C 
ATOM      9  O   ASP A   1      18.109  67.534  14.631  0.00  0.00    +0.000 OA
BRANCH   8  10
ATOM     10  CA  ASP A   1      16.782  67.974  12.661  0.00  0.00    +0.000 C 
ATOM     11  N   ASP A   1      15.760  66.774  12.788  0.00  0.00    +0.000 NA
BRANCH  10  12
ATOM     12  CB  ASP A   1      17.326  67.428  11.201  0.00  0.00    +0.000 C 
BRANCH  12  13
ATOM     13  CG  ASP A   1      16.602  68.201  10.182  0.00  0.00    +0.000 C 
ATOM     14  OD1 ASP A   1      17.226  69.177   9.666  0.00  0.00    +0.000 OA
ATOM     15  OD2 ASP A   1      15.369  67.867   9.659  0.00  0.00    +0.000 OA
ENDBRANCH  12  13
ENDBRANCH  10  12
ENDBRANCH   8  10
ENDBRANCH   6   7
BRANCH   6  16
ATOM     16  C   LYS A   2      19.651  64.261  14.213  0.00  0.00    +0.000 C 
ATOM     17  O   LYS A   2      18.854  64.220  15.140  0.00  0.00    +0.000 OA
ATOM     18  OXT LYS A   2      19.470  63.259  13.241  0.00  0.00    +0.000 OA
ENDBRANCH   6  16
BRANCH   6   5
ATOM      5  CB  LYS A   2      19.948  64.871  11.896  0.00  0.00    +0.000 C 
BRANCH   5   4
ATOM      4  CG  LYS A   2      20.984  65.705  11.153  0.00  0.00    +0.000 C 
BRANCH   4   3
ATOM      3  CD  LYS A   2      20.492  66.102   9.789  0.00  0.00    +0.000 C 
BRANCH   3   2
ATOM      1  NZ  LYS A   2      20.732  68.102   9.904  0.00  0.00    +0.000 NA
ATOM      2  CE  LYS A   2      20.704  67.562   9.513  0.00  0.00    +0.000 C 
ENDBRANCH   3   2
ENDBRANCH   4   3
ENDBRANCH   5   4
ENDBRANCH   6   5
TORSDOF 9
ENDMDL
MODEL 9
REMARK VINA RESULT:      -4.5      3.167      5.005
REMARK  Name = 
REMARK  9 active torsions:
REMARK  status: ('A' for Active; 'I' for Inactive)
REMARK    1  A    between atoms: CE_2  and  CD_3
REMARK    2  A    between atoms: CD_3  and  CG_4
REMARK    3  A    between atoms: CG_4  and  CB_5
REMARK    4  A    between atoms: CB_5  and  CA_6
REMARK    5  A    between atoms: CA_6  and  N_7
REMARK    6  A    between atoms: CA_6  and  C_16
REMARK    7  A    between atoms: C_8  and  CA_10
REMARK    8  A    between atoms: CA_10  and  CB_12
REMARK    9  A    between atoms: CB_12  and  CG_13
REMARK                            x       y       z     vdW  Elec       q    Type
REMARK                         _______ _______ _______ _____ _____    ______ ____
ROOT
ATOM      6  CA  LYS A   2      20.071  65.664  14.100  0.00  0.00    +0.000 C 
ENDROOT
BRANCH   6   7
ATOM      7  N   LYS A   2      18.510  65.840  13.898  0.00  0.00    +0.000 NA
ATOM      8  C   ASP A   1      18.148  67.160  13.854  0.00  0.00    +0.000 C 
ATOM      9  O   ASP A   1      18.302  67.761  14.961  0.00  0.00    +0.000 OA
BRANCH   8  10
ATOM     10  CA  ASP A   1      16.925  67.718  12.978  0.00  0.00    +0.000 C 
ATOM     11  N   ASP A   1      16.424  66.280  12.554  0.00  0.00    +0.000 NA
BRANCH  10  12
ATOM     12  CB  ASP A   1      17.900  67.830  11.650  0.00  0.00    +0.000 C 
BRANCH  12  13
ATOM     13  CG  ASP A   1      17.589  69.123  11.025  0.00  0.00    +0.000 C 
ATOM     14  OD1 ASP A   1      18.004  70.157  11.632  0.00  0.00    +0.000 OA
ATOM     15  OD2 ASP A   1      17.009  69.286   9.783  0.00  0.00    +0.000 OA
ENDBRANCH  12  13
ENDBRANCH  10  12
ENDBRANCH   8  10
ENDBRANCH   6   7
BRANCH   6  16
ATOM     16  C   LYS A   2      19.945  64.564  15.273  0.00  0.00    +0.000 C 
ATOM     17  O   LYS A   2      20.196  64.867  16.431  0.00  0.00    +0.000 OA
ATOM     18  OXT LYS A   2      18.675  63.988  15.081  0.00  0.00    +0.000 OA
ENDBRANCH   6  16
BRANCH   6   5
ATOM      5  CB  LYS A   2      20.170  64.572  12.870  0.00  0.00    +0.000 C 
BRANCH   5   4
ATOM      4  CG  LYS A   2      21.432  63.784  13.200  0.00  0.00    +0.000 C 
BRANCH   4   3
ATOM      3  CD  LYS A   2      21.438  62.447  12.513  0.00  0.00    +0.000 C 
BRANCH   3   2
ATOM      1  NZ  LYS A   2      20.137  61.070  13.206  0.00  0.00    +0.000 NA
ATOM      2  CE  LYS A   2      20.227  61.630  12.853  0.00  0.00    +0.000 C 
ENDBRANCH   3   2
ENDBRANCH   4   3
ENDBRANCH   5   4
ENDBRANCH   6   5
TORSDOF 9
ENDMDL
MODEL 10
REMARK VINA RESULT:      -4.5     22.943     24.775
REMARK  Name = 
REMARK  9 active torsions:
REMARK  status: ('A' for Active; 'I' for Inactive)
REMARK    1  A    between atoms: CE_2  and  CD_3
REMARK    2  A    between atoms: CD_3  and  CG_4
REMARK    3  A    between atoms: CG_4  and  CB_5
REMARK    4  A    between atoms: CB_5  and  CA_6
REMARK    5  A    between atoms: CA_6  and  N_7
REMARK    6  A    between atoms: CA_6  and  C_16
REMARK    7  A    between atoms: C_8  and  CA_10
REMARK    8  A    between atoms: CA_10  and  CB_12
REMARK    9  A    between atoms: CB_12  and  CG_13
REMARK                            x       y       z     vdW  Elec       q    Type
REMARK                         _______ _______ _______ _____ _____    ______ ____
ROOT
ATOM      6  CA  LYS A   2       7.130  83.784  25.985  0.00  0.00    +0.000 C 
ENDROOT
BRANCH   6   7
ATOM      7  N   LYS A   2       7.210  82.511  26.923  0.00  0.00    +0.000 NA
ATOM      8  C   ASP A   1       7.520  82.849  28.214  0.00  0.00    +0.000 C 
ATOM      9  O   ASP A   1       8.699  83.301  28.346  0.00  0.00    +0.000 OA
BRANCH   8  10
ATOM     10  CA  ASP A   1       6.986  82.044  29.496  0.00  0.00    +0.000 C 
ATOM     11  N   ASP A   1       8.033  80.871  29.337  0.00  0.00    +0.000 NA
BRANCH  10  12
ATOM     12  CB  ASP A   1       5.877  81.254  28.563  0.00  0.00    +0.000 C 
BRANCH  12  13
ATOM     13  CG  ASP A   1       5.001  80.532  29.496  0.00  0.00    +0.000 C 
ATOM     14  OD1 ASP A   1       4.411  81.234  30.373  0.00  0.00    +0.000 OA
ATOM     15  OD2 ASP A   1       4.674  79.194  29.405  0.00  0.00    +0.000 OA
ENDBRANCH  12  13
ENDBRANCH  10  12
ENDBRANCH   8  10
ENDBRANCH   6   7
BRANCH   6  16
ATOM     16  C   LYS A   2       8.129  83.202  24.859  0.00  0.00    +0.000 C 
ATOM     17  O   LYS A   2       7.682  82.635  23.872  0.00  0.00    +0.000 OA
ATOM     18  OXT LYS A   2       9.000  84.270  24.575  0.00  0.00    +0.000 OA
ENDBRANCH   6  16
BRANCH   6   5
ATOM      5  CB  LYS A   2       5.750  83.244  25.265  0.00  0.00    +0.000 C 
BRANCH   5   4
ATOM      4  CG  LYS A   2       4.722  84.307  25.634  0.00  0.00    +0.000 C 
BRANCH   4   3
ATOM      3  CD  LYS A   2       3.862  83.861  26.784  0.00  0.00    +0.000 C 
BRANCH   3   2
ATOM      1  NZ  LYS A   2       4.501  84.684  28.511  0.00  0.00    +0.000 NA
ATOM      2  CE  LYS A   2       4.067  84.708  28.005  0.00  0.00    +0.000 C 
ENDBRANCH   3   2
ENDBRANCH   4   3
ENDBRANCH   5   4
ENDBRANCH   6   5
TORSDOF 9
ENDMDL
