MODEL 1
REMARK VINA RESULT:      -4.8      0.000      0.000
REMARK  Name = 
REMARK  7 active torsions:
REMARK  status: ('A' for Active; 'I' for Inactive)
REMARK    1  A    between atoms: CA_2  and  CB_3
REMARK    2  A    between atoms: CA_2  and  C_7
REMARK    3  A    between atoms: CB_3  and  CG_4
REMARK    4  A    between atoms: N_9  and  CA_10
REMARK    5  A    between atoms: CA_10  and  CB_11
REMARK    6  A    between atoms: CA_10  and  C_18
REMARK    7  A    between atoms: CB_11  and  CG_12
REMARK                            x       y       z     vdW  Elec       q    Type
REMARK                         _______ _______ _______ _____ _____    ______ ____
ROOT
ATOM     10  CA  PHE A   2       6.439  46.695 -12.896  0.00  0.00    +0.000 C 
ENDROOT
BRANCH  10   9
ATOM      7  C   ASP A   1       5.553  46.658 -15.144  0.00  0.00    +0.000 C 
ATOM      8  O   ASP A   1       4.465  47.205 -14.986  0.00  0.00    +0.000 OA
ATOM      9  N   PHE A   2       6.460  47.397 -14.300  0.00  0.00    +0.000 NA
BRANCH   7   2
ATOM      1  N   ASP A   1       4.965  46.950 -17.393  0.00  0.00    +0.000 NA
ATOM      2  CA  ASP A   1       6.293  46.723 -16.578  0.00  0.00    +0.000 C 
BRANCH   2   3
ATOM      3  CB  ASP A   1       6.240  45.095 -16.733  0.00  0.00    +0.000 C 
BRANCH   3   4
ATOM      4  CG  ASP A   1       7.282  44.603 -17.586  0.00  0.00    +0.000 C 
ATOM      5  OD1 ASP A   1       7.622  43.459 -17.915  0.00  0.00    +0.000 OA
ATOM      6  OD2 ASP A   1       8.286  45.568 -17.784  0.00  0.00    +0.000 OA
ENDBRANCH   3   4
ENDBRANCH   2   3
ENDBRANCH   7   2
ENDBRANCH  10   9
BRANCH  10  18
ATOM     18  C   PHE A   2       6.494  48.042 -12.022  0.00  0.00    +0.000 C 
ATOM     19  O   PHE A   2       6.643  48.016 -10.816  0.00  0.00    +0.000 OA
ATOM     20  OXT PHE A   2       6.917  49.067 -12.850  0.00  0.00    +0.000 OA
ENDBRANCH  10  18
BRANCH  10  11
ATOM     11  CB  PHE A   2       8.082  46.542 -12.938  0.00  0.00    +0.000 C 
BRANCH  11  12
ATOM     12  CG  PHE A   2       8.378  45.163 -13.366  0.00  0.00    +0.000 A 
ATOM     13  CD1 PHE A   2       9.157  44.762 -14.416  0.00  0.00    +0.000 A 
ATOM     14  CE1 PHE A   2       9.397  43.412 -14.623  0.00  0.00    +0.000 A 
ATOM     15  CZ  PHE A   2       8.247  42.645 -14.511  0.00  0.00    +0.000 A 
ATOM     16  CE2 PHE A   2       7.380  42.981 -13.486  0.00  0.00    +0.000 A 
ATOM     17  CD2 PHE A   2       7.571  44.175 -12.797  0.00  0.00    +0.000 A 
ENDBRANCH  11  12
ENDBRANCH  10  11
TORSDOF 7
ENDMDL
MODEL 2
REMARK VINA RESULT:      -4.8     34.415     36.404
REMARK  Name = 
REMARK  7 active torsions:
REMARK  status: ('A' for Active; 'I' for Inactive)
REMARK    1  A    between atoms: CA_2  and  CB_3
REMARK    2  A    between atoms: CA_2  and  C_7
REMARK    3  A    between atoms: CB_3  and  CG_4
REMARK    4  A    between atoms: N_9  and  CA_10
REMARK    5  A    between atoms: CA_10  and  CB_11
REMARK    6  A    between atoms: CA_10  and  C_18
REMARK    7  A    between atoms: CB_11  and  CG_12
REMARK                            x       y       z     vdW  Elec       q    Type
REMARK                         _______ _______ _______ _____ _____    ______ ____
ROOT
ATOM     10  CA  PHE A   2      17.913  68.653  10.272  0.00  0.00    +0.000 C 
ENDROOT
BRANCH  10   9
ATOM      7  C   ASP A   1      18.206  70.235   8.469  0.00  0.00    +0.000 C 
ATOM      8  O   ASP A   1      17.796  69.588   7.508  0.00  0.00    +0.000 OA
ATOM      9  N   PHE A   2      17.304  69.903   9.544  0.00  0.00    +0.000 NA
BRANCH   7   2
ATOM      1  N   ASP A   1      16.707  71.917   9.112  0.00  0.00    +0.000 NA
ATOM      2  CA  ASP A   1      18.134  71.848   8.450  0.00  0.00    +0.000 C 
BRANCH   2   3
ATOM      3  CB  ASP A   1      17.547  71.852   6.922  0.00  0.00    +0.000 C 
BRANCH   3   4
ATOM      4  CG  ASP A   1      17.801  73.094   6.253  0.00  0.00    +0.000 C 
ATOM      5  OD1 ASP A   1      17.568  73.486   5.102  0.00  0.00    +0.000 OA
ATOM      6  OD2 ASP A   1      18.790  73.844   6.914  0.00  0.00    +0.000 OA
ENDBRANCH   3   4
ENDBRANCH   2   3
ENDBRANCH   7   2
ENDBRANCH  10   9
BRANCH  10  18
ATOM     18  C   PHE A   2      16.653  67.683  10.048  0.00  0.00    +0.000 C 
ATOM     19  O   PHE A   2      15.544  68.120   9.809  0.00  0.00    +0.000 OA
ATOM     20  OXT PHE A   2      17.132  66.461   9.612  0.00  0.00    +0.000 OA
ENDBRANCH  10  18
BRANCH  10  11
ATOM     11  CB  PHE A   2      17.349  69.209  11.720  0.00  0.00    +0.000 C 
BRANCH  11  12
ATOM     12  CG  PHE A   2      18.154  68.566  12.774  0.00  0.00    +0.000 A 
ATOM     13  CD1 PHE A   2      17.790  67.529  13.589  0.00  0.00    +0.000 A 
ATOM     14  CE1 PHE A   2      18.711  66.988  14.473  0.00  0.00    +0.000 A 
ATOM     15  CZ  PHE A   2      19.421  67.961  15.161  0.00  0.00    +0.000 A 
ATOM     16  CE2 PHE A   2      19.823  69.064  14.428  0.00  0.00    +0.000 A 
ATOM     17  CD2 PHE A   2      19.308  69.255  13.149  0.00  0.00    +0.000 A 
ENDBRANCH  11  12
ENDBRANCH  10  11
TORSDOF 7
ENDMDL
MODEL 3
REMARK VINA RESULT:      -4.8     46.012     48.536
REMARK  Name = 
REMARK  7 active torsions:
REMARK  status: ('A' for Active; 'I' for Inactive)
REMARK    1  A    between atoms: CA_2  and  CB_3
REMARK    2  A    between atoms: CA_2  and  C_7
REMARK    3  A    between atoms: CB_3  and  CG_4
REMARK    4  A    between atoms: N_9  and  CA_10
REMARK    5  A    between atoms: CA_10  and  CB_11
REMARK    6  A    between atoms: CA_10  and  C_18
REMARK    7  A    between atoms: CB_11  and  CG_12
REMARK                            x       y       z     vdW  Elec       q    Type
REMARK                         _______ _______ _______ _____ _____    ______ ____
ROOT
ATOM     10  CA  PHE A   2      -9.410  72.961  20.271  0.00  0.00    +0.000 C 
ENDROOT
BRANCH  10   9
ATOM      7  C   ASP A   1     -11.298  71.485  19.959  0.00  0.00    +0.000 C 
ATOM      8  O   ASP A   1     -11.466  71.559  18.744  0.00  0.00    +0.000 OA
ATOM      9  N   PHE A   2      -9.865  71.466  20.128  0.00  0.00    +0.000 NA
BRANCH   7   2
ATOM      1  N   ASP A   1     -13.057  69.938  19.907  0.00  0.00    +0.000 NA
ATOM      2  CA  ASP A   1     -11.753  70.160  20.761  0.00  0.00    +0.000 C 
BRANCH   2   3
ATOM      3  CB  ASP A   1     -12.518  71.054  21.899  0.00  0.00    +0.000 C 
BRANCH   3   4
ATOM      4  CG  ASP A   1     -12.454  70.443  23.194  0.00  0.00    +0.000 C 
ATOM      5  OD1 ASP A   1     -11.518  69.959  23.844  0.00  0.00    +0.000 OA
ATOM      6  OD2 ASP A   1     -13.721  70.011  23.625  0.00  0.00    +0.000 OA
ENDBRANCH   3   4
ENDBRANCH   2   3
ENDBRANCH   7   2
ENDBRANCH  10   9
BRANCH  10  18
ATOM     18  C   PHE A   2      -7.942  72.761  19.650  0.00  0.00    +0.000 C 
ATOM     19  O   PHE A   2      -7.691  71.853  18.882  0.00  0.00    +0.000 OA
ATOM     20  OXT PHE A   2      -7.309  73.991  19.655  0.00  0.00    +0.000 OA
ENDBRANCH  10  18
BRANCH  10  11
ATOM     11  CB  PHE A   2      -8.902  72.669  21.814  0.00  0.00    +0.000 C 
BRANCH  11  12
ATOM     12  CG  PHE A   2      -9.800  73.413  22.714  0.00  0.00    +0.000 A 
ATOM     13  CD1 PHE A   2     -10.070  73.153  24.029  0.00  0.00    +0.000 A 
ATOM     14  CE1 PHE A   2     -10.881  74.015  24.752  0.00  0.00    +0.000 A 
ATOM     15  CZ  PHE A   2     -12.022  74.382  24.054  0.00  0.00    +0.000 A 
ATOM     16  CE2 PHE A   2     -11.859  74.651  22.706  0.00  0.00    +0.000 A 
ATOM     17  CD2 PHE A   2     -10.658  74.319  22.087  0.00  0.00    +0.000 A 
ENDBRANCH  11  12
ENDBRANCH  10  11
TORSDOF 7
ENDMDL
MODEL 4
REMARK VINA RESULT:      -4.7     22.029     25.009
REMARK  Name = 
REMARK  7 active torsions:
REMARK  status: ('A' for Active; 'I' for Inactive)
REMARK    1  A    between atoms: CA_2  and  CB_3
REMARK    2  A    between atoms: CA_2  and  C_7
REMARK    3  A    between atoms: CB_3  and  CG_4
REMARK    4  A    between atoms: N_9  and  CA_10
REMARK    5  A    between atoms: CA_10  and  CB_11
REMARK    6  A    between atoms: CA_10  and  C_18
REMARK    7  A    between atoms: CB_11  and  CG_12
REMARK                            x       y       z     vdW  Elec       q    Type
REMARK                         _______ _______ _______ _____ _____    ______ ____
ROOT
ATOM     10  CA  PHE A   2      10.225  57.662   5.157  0.00  0.00    +0.000 C 
ENDROOT
BRANCH  10   9
ATOM      7  C   ASP A   1       8.131  56.906   6.098  0.00  0.00    +0.000 C 
ATOM      8  O   ASP A   1       7.440  56.787   5.089  0.00  0.00    +0.000 OA
ATOM      9  N   PHE A   2       9.433  56.424   5.707  0.00  0.00    +0.000 NA
BRANCH   7   2
ATOM      1  N   ASP A   1       6.478  55.416   6.831  0.00  0.00    +0.000 NA
ATOM      2  CA  ASP A   1       7.816  56.015   7.406  0.00  0.00    +0.000 C 
BRANCH   2   3
ATOM      3  CB  ASP A   1       7.067  57.271   8.141  0.00  0.00    +0.000 C 
BRANCH   3   4
ATOM      4  CG  ASP A   1       7.998  58.270   8.577  0.00  0.00    +0.000 C 
ATOM      5  OD1 ASP A   1       9.062  58.202   9.207  0.00  0.00    +0.000 OA
ATOM      6  OD2 ASP A   1       7.413  59.548   8.596  0.00  0.00    +0.000 OA
ENDBRANCH   3   4
ENDBRANCH   2   3
ENDBRANCH   7   2
ENDBRANCH  10   9
BRANCH  10  18
ATOM     18  C   PHE A   2      10.486  57.069   3.688  0.00  0.00    +0.000 C 
ATOM     19  O   PHE A   2      10.300  57.734   2.687  0.00  0.00    +0.000 OA
ATOM     20  OXT PHE A   2      11.421  56.055   3.800  0.00  0.00    +0.000 OA
ENDBRANCH  10  18
BRANCH  10  11
ATOM     11  CB  PHE A   2      11.631  57.044   5.761  0.00  0.00    +0.000 C 
BRANCH  11  12
ATOM     12  CG  PHE A   2      12.261  58.107   6.564  0.00  0.00    +0.000 A 
ATOM     13  CD1 PHE A   2      12.989  59.174   6.114  0.00  0.00    +0.000 A 
ATOM     14  CE1 PHE A   2      13.439  60.132   7.011  0.00  0.00    +0.000 A 
ATOM     15  CZ  PHE A   2      13.995  59.571   8.151  0.00  0.00    +0.000 A 
ATOM     16  CE2 PHE A   2      13.341  58.472   8.678  0.00  0.00    +0.000 A 
ATOM     17  CD2 PHE A   2      12.340  57.854   7.934  0.00  0.00    +0.000 A 
ENDBRANCH  11  12
ENDBRANCH  10  11
TORSDOF 7
ENDMDL
MODEL 5
REMARK VINA RESULT:      -4.6     48.129     50.495
REMARK  Name = 
REMARK  7 active torsions:
REMARK  status: ('A' for Active; 'I' for Inactive)
REMARK    1  A    between atoms: CA_2  and  CB_3
REMARK    2  A    between atoms: CA_2  and  C_7
REMARK    3  A    between atoms: CB_3  and  CG_4
REMARK    4  A    between atoms: N_9  and  CA_10
REMARK    5  A    between atoms: CA_10  and  CB_11
REMARK    6  A    between atoms: CA_10  and  C_18
REMARK    7  A    between atoms: CB_11  and  CG_12
REMARK                            x       y       z     vdW  Elec       q    Type
REMARK                         _______ _______ _______ _____ _____    ______ ____
ROOT
ATOM     10  CA  PHE A   2     -10.894  72.576  22.424  0.00  0.00    +0.000 C 
ENDROOT
BRANCH  10   9
ATOM      7  C   ASP A   1     -11.907  70.382  22.385  0.00  0.00    +0.000 C 
ATOM      8  O   ASP A   1     -11.476  69.934  21.326  0.00  0.00    +0.000 OA
ATOM      9  N   PHE A   2     -10.795  71.103  22.956  0.00  0.00    +0.000 NA
BRANCH   7   2
ATOM      1  N   ASP A   1     -12.991  68.320  22.636  0.00  0.00    +0.000 NA
ATOM      2  CA  ASP A   1     -12.314  69.380  23.584  0.00  0.00    +0.000 C 
BRANCH   2   3
ATOM      3  CB  ASP A   1     -13.709  70.192  23.853  0.00  0.00    +0.000 C 
BRANCH   3   4
ATOM      4  CG  ASP A   1     -14.226  69.948  25.168  0.00  0.00    +0.000 C 
ATOM      5  OD1 ASP A   1     -14.944  70.618  25.921  0.00  0.00    +0.000 OA
ATOM      6  OD2 ASP A   1     -13.500  68.942  25.830  0.00  0.00    +0.000 OA
ENDBRANCH   3   4
ENDBRANCH   2   3
ENDBRANCH   7   2
ENDBRANCH  10   9
BRANCH  10  18
ATOM     18  C   PHE A   2      -9.338  72.739  22.060  0.00  0.00    +0.000 C 
ATOM     19  O   PHE A   2      -8.939  73.643  21.351  0.00  0.00    +0.000 OA
ATOM     20  OXT PHE A   2      -8.602  72.139  23.066  0.00  0.00    +0.000 OA
ENDBRANCH  10  18
BRANCH  10  11
ATOM     11  CB  PHE A   2     -10.694  73.153  23.958  0.00  0.00    +0.000 C 
BRANCH  11  12
ATOM     12  CG  PHE A   2     -12.004  73.657  24.405  0.00  0.00    +0.000 A 
ATOM     13  CD1 PHE A   2     -12.682  73.328  25.547  0.00  0.00    +0.000 A 
ATOM     14  CE1 PHE A   2     -13.873  73.968  25.853  0.00  0.00    +0.000 A 
ATOM     15  CZ  PHE A   2     -14.720  74.065  24.759  0.00  0.00    +0.000 A 
ATOM     16  CE2 PHE A   2     -14.129  74.379  23.548  0.00  0.00    +0.000 A 
ATOM     17  CD2 PHE A   2     -12.742  74.343  23.439  0.00  0.00    +0.000 A 
ENDBRANCH  11  12
ENDBRANCH  10  11
TORSDOF 7
ENDMDL
MODEL 6
REMARK VINA RESULT:      -4.6     55.462     57.585
REMARK  Name = 
REMARK  7 active torsions:
REMARK  status: ('A' for Active; 'I' for Inactive)
REMARK    1  A    between atoms: CA_2  and  CB_3
REMARK    2  A    between atoms: CA_2  and  C_7
REMARK    3  A    between atoms: CB_3  and  CG_4
REMARK    4  A    between atoms: N_9  and  CA_10
REMARK    5  A    between atoms: CA_10  and  CB_11
REMARK    6  A    between atoms: CA_10  and  C_18
REMARK    7  A    between atoms: CB_11  and  CG_12
REMARK                            x       y       z     vdW  Elec       q    Type
REMARK                         _______ _______ _______ _____ _____    ______ ____
ROOT
ATOM     10  CA  PHE A   2       7.926  80.783  31.732  0.00  0.00    +0.000 C 
ENDROOT
BRANCH  10   9
ATOM      7  C   ASP A   1       7.786  81.993  29.645  0.00  0.00    +0.000 C 
ATOM      8  O   ASP A   1       8.871  82.569  29.624  0.00  0.00    +0.000 OA
ATOM      9  N   PHE A   2       8.078  80.683  30.174  0.00  0.00    +0.000 NA
BRANCH   7   2
ATOM      1  N   ASP A   1       6.904  83.144  27.804  0.00  0.00    +0.000 NA
ATOM      2  CA  ASP A   1       7.027  81.643  28.264  0.00  0.00    +0.000 C 
BRANCH   2   3
ATOM      3  CB  ASP A   1       5.570  81.636  29.010  0.00  0.00    +0.000 C 
BRANCH   3   4
ATOM      4  CG  ASP A   1       4.820  80.451  28.712  0.00  0.00    +0.000 C 
ATOM      5  OD1 ASP A   1       4.682  79.789  27.676  0.00  0.00    +0.000 OA
ATOM      6  OD2 ASP A   1       3.808  80.228  29.663  0.00  0.00    +0.000 OA
ENDBRANCH   3   4
ENDBRANCH   2   3
ENDBRANCH   7   2
ENDBRANCH  10   9
BRANCH  10  18
ATOM     18  C   PHE A   2       9.174  79.837  32.094  0.00  0.00    +0.000 C 
ATOM     19  O   PHE A   2       9.162  78.645  31.857  0.00  0.00    +0.000 OA
ATOM     20  OXT PHE A   2      10.309  80.627  32.123  0.00  0.00    +0.000 OA
ENDBRANCH  10  18
BRANCH  10  11
ATOM     11  CB  PHE A   2       6.855  79.528  31.719  0.00  0.00    +0.000 C 
BRANCH  11  12
ATOM     12  CG  PHE A   2       5.703  79.933  32.542  0.00  0.00    +0.000 A 
ATOM     13  CD1 PHE A   2       4.648  79.160  32.943  0.00  0.00    +0.000 A 
ATOM     14  CE1 PHE A   2       3.688  79.688  33.794  0.00  0.00    +0.000 A 
ATOM     15  CZ  PHE A   2       3.282  80.958  33.414  0.00  0.00    +0.000 A 
ATOM     16  CE2 PHE A   2       4.275  81.816  32.975  0.00  0.00    +0.000 A 
ATOM     17  CD2 PHE A   2       5.545  81.310  32.713  0.00  0.00    +0.000 A 
ENDBRANCH  11  12
ENDBRANCH  10  11
TORSDOF 7
ENDMDL
MODEL 7
REMARK VINA RESULT:      -4.6     43.543     45.571
REMARK  Name = 
REMARK  7 active torsions:
REMARK  status: ('A' for Active; 'I' for Inactive)
REMARK    1  A    between atoms: CA_2  and  CB_3
REMARK    2  A    between atoms: CA_2  and  C_7
REMARK    3  A    between atoms: CB_3  and  CG_4
REMARK    4  A    between atoms: N_9  and  CA_10
REMARK    5  A    between atoms: CA_10  and  CB_11
REMARK    6  A    between atoms: CA_10  and  C_18
REMARK    7  A    between atoms: CB_11  and  CG_12
REMARK                            x       y       z     vdW  Elec       q    Type
REMARK                         _______ _______ _______ _____ _____    ______ ____
ROOT
ATOM     10  CA  PHE A   2       8.985  21.820  24.414  0.00  0.00    +0.000 C 
ENDROOT
BRANCH  10   9
ATOM      7  C   ASP A   1       9.750  23.471  26.004  0.00  0.00    +0.000 C 
ATOM      8  O   ASP A   1      10.273  22.761  26.859  0.00  0.00    +0.000 OA
ATOM      9  N   PHE A   2      10.113  22.858  24.750  0.00  0.00    +0.000 NA
BRANCH   7   2
ATOM      1  N   ASP A   1      11.307  24.627  24.688  0.00  0.00    +0.000 NA
ATOM      2  CA  ASP A   1      10.250  24.992  25.797  0.00  0.00    +0.000 C 
BRANCH   2   3
ATOM      3  CB  ASP A   1      11.325  24.857  27.023  0.00  0.00    +0.000 C 
BRANCH   3   4
ATOM      4  CG  ASP A   1      11.698  26.136  27.552  0.00  0.00    +0.000 C 
ATOM      5  OD1 ASP A   1      11.449  27.294  27.192  0.00  0.00    +0.000 OA
ATOM      6  OD2 ASP A   1      12.814  26.038  28.401  0.00  0.00    +0.000 OA
ENDBRANCH   3   4
ENDBRANCH   2   3
ENDBRANCH   7   2
ENDBRANCH  10   9
BRANCH  10  18
ATOM     18  C   PHE A   2       9.956  20.683  23.827  0.00  0.00    +0.000 C 
ATOM     19  O   PHE A   2      10.436  20.765  22.714  0.00  0.00    +0.000 OA
ATOM     20  OXT PHE A   2      10.548  20.037  24.899  0.00  0.00    +0.000 OA
ENDBRANCH  10  18
BRANCH  10  11
ATOM     11  CB  PHE A   2       8.761  22.525  22.939  0.00  0.00    +0.000 C 
BRANCH  11  12
ATOM     12  CG  PHE A   2       7.394  23.076  22.925  0.00  0.00    +0.000 A 
ATOM     13  CD1 PHE A   2       6.233  22.426  22.614  0.00  0.00    +0.000 A 
ATOM     14  CE1 PHE A   2       5.017  23.082  22.738  0.00  0.00    +0.000 A 
ATOM     15  CZ  PHE A   2       5.050  24.363  22.208  0.00  0.00    +0.000 A 
ATOM     16  CE2 PHE A   2       6.193  25.102  22.453  0.00  0.00    +0.000 A 
ATOM     17  CD2 PHE A   2       7.312  24.469  22.987  0.00  0.00    +0.000 A 
ENDBRANCH  11  12
ENDBRANCH  10  11
TORSDOF 7
ENDMDL
MODEL 8
REMARK VINA RESULT:      -4.5     21.383     24.519
REMARK  Name = 
REMARK  7 active torsions:
REMARK  status: ('A' for Active; 'I' for Inactive)
REMARK    1  A    between atoms: CA_2  and  CB_3
REMARK    2  A    between atoms: CA_2  and  C_7
REMARK    3  A    between atoms: CB_3  and  CG_4
REMARK    4  A    between atoms: N_9  and  CA_10
REMARK    5  A    between atoms: CA_10  and  CB_11
REMARK    6  A    between atoms: CA_10  and  C_18
REMARK    7  A    between atoms: CB_11  and  CG_12
REMARK                            x       y       z     vdW  Elec       q    Type
REMARK                         _______ _______ _______ _____ _____    ______ ____
ROOT
ATOM     10  CA  PHE A   2      11.104  58.201   3.887  0.00  0.00    +0.000 C 
ENDROOT
BRANCH  10   9
ATOM      7  C   ASP A   1       9.234  59.566   4.578  0.00  0.00    +0.000 C 
ATOM      8  O   ASP A   1       9.081  60.285   3.594  0.00  0.00    +0.000 OA
ATOM      9  N   PHE A   2       9.544  58.266   4.036  0.00  0.00    +0.000 NA
BRANCH   7   2
ATOM      1  N   ASP A   1       7.379  60.693   5.461  0.00  0.00    +0.000 NA
ATOM      2  CA  ASP A   1       7.985  59.242   5.549  0.00  0.00    +0.000 C 
BRANCH   2   3
ATOM      3  CB  ASP A   1       8.873  59.574   6.882  0.00  0.00    +0.000 C 
BRANCH   3   4
ATOM      4  CG  ASP A   1       8.162  59.272   8.089  0.00  0.00    +0.000 C 
ATOM      5  OD1 ASP A   1       7.173  59.786   8.627  0.00  0.00    +0.000 OA
ATOM      6  OD2 ASP A   1       8.939  58.494   8.966  0.00  0.00    +0.000 OA
ENDBRANCH   3   4
ENDBRANCH   2   3
ENDBRANCH   7   2
ENDBRANCH  10   9
BRANCH  10  18
ATOM     18  C   PHE A   2      11.117  57.570   2.410  0.00  0.00    +0.000 C 
ATOM     19  O   PHE A   2      10.985  58.260   1.418  0.00  0.00    +0.000 OA
ATOM     20  OXT PHE A   2      11.834  56.387   2.461  0.00  0.00    +0.000 OA
ENDBRANCH  10  18
BRANCH  10  11
ATOM     11  CB  PHE A   2      11.123  56.723   4.622  0.00  0.00    +0.000 C 
BRANCH  11  12
ATOM     12  CG  PHE A   2      11.324  56.959   6.063  0.00  0.00    +0.000 A 
ATOM     13  CD1 PHE A   2      12.337  57.655   6.664  0.00  0.00    +0.000 A 
ATOM     14  CE1 PHE A   2      12.322  57.852   8.036  0.00  0.00    +0.000 A 
ATOM     15  CZ  PHE A   2      12.004  56.696   8.735  0.00  0.00    +0.000 A 
ATOM     16  CE2 PHE A   2      10.999  55.910   8.199  0.00  0.00    +0.000 A 
ATOM     17  CD2 PHE A   2      10.542  56.174   6.912  0.00  0.00    +0.000 A 
ENDBRANCH  11  12
ENDBRANCH  10  11
TORSDOF 7
ENDMDL
MODEL 9
REMARK VINA RESULT:      -4.5     32.713     35.354
REMARK  Name = 
REMARK  7 active torsions:
REMARK  status: ('A' for Active; 'I' for Inactive)
REMARK    1  A    between atoms: CA_2  and  CB_3
REMARK    2  A    between atoms: CA_2  and  C_7
REMARK    3  A    between atoms: CB_3  and  CG_4
REMARK    4  A    between atoms: N_9  and  CA_10
REMARK    5  A    between atoms: CA_10  and  CB_11
REMARK    6  A    between atoms: CA_10  and  C_18
REMARK    7  A    between atoms: CB_11  and  CG_12
REMARK                            x       y       z     vdW  Elec       q    Type
REMARK                         _______ _______ _______ _____ _____    ______ ____
ROOT
ATOM     10  CA  PHE A   2       5.591  51.779  18.723  0.00  0.00    +0.000 C 
ENDROOT
BRANCH  10   9
ATOM      7  C   ASP A   1       6.890  52.768  20.505  0.00  0.00    +0.000 C 
ATOM      8  O   ASP A   1       7.613  51.830  20.828  0.00  0.00    +0.000 OA
ATOM      9  N   PHE A   2       6.819  52.694  19.066  0.00  0.00    +0.000 NA
BRANCH   7   2
ATOM      1  N   ASP A   1       8.068  53.982  22.126  0.00  0.00    +0.000 NA
ATOM      2  CA  ASP A   1       7.377  54.288  20.744  0.00  0.00    +0.000 C 
BRANCH   2   3
ATOM      3  CB  ASP A   1       5.945  54.692  21.425  0.00  0.00    +0.000 C 
BRANCH   3   4
ATOM      4  CG  ASP A   1       5.515  56.002  21.032  0.00  0.00    +0.000 C 
ATOM      5  OD1 ASP A   1       4.811  56.853  21.592  0.00  0.00    +0.000 OA
ATOM      6  OD2 ASP A   1       5.622  56.186  19.642  0.00  0.00    +0.000 OA
ENDBRANCH   3   4
ENDBRANCH   2   3
ENDBRANCH   7   2
ENDBRANCH  10   9
BRANCH  10  18
ATOM     18  C   PHE A   2       6.220  51.126  17.396  0.00  0.00    +0.000 C 
ATOM     19  O   PHE A   2       7.103  51.678  16.770  0.00  0.00    +0.000 OA
ATOM     20  OXT PHE A   2       6.040  49.757  17.472  0.00  0.00    +0.000 OA
ENDBRANCH  10  18
BRANCH  10  11
ATOM     11  CB  PHE A   2       4.885  53.019  17.894  0.00  0.00    +0.000 C 
BRANCH  11  12
ATOM     12  CG  PHE A   2       3.486  53.104  18.350  0.00  0.00    +0.000 A 
ATOM     13  CD1 PHE A   2       3.033  53.350  19.617  0.00  0.00    +0.000 A 
ATOM     14  CE1 PHE A   2       1.672  53.481  19.852  0.00  0.00    +0.000 A 
ATOM     15  CZ  PHE A   2       0.928  52.497  19.219  0.00  0.00    +0.000 A 
ATOM     16  CE2 PHE A   2       1.316  52.161  17.934  0.00  0.00    +0.000 A 
ATOM     17  CD2 PHE A   2       2.533  52.629  17.447  0.00  0.00    +0.000 A 
ENDBRANCH  11  12
ENDBRANCH  10  11
TORSDOF 7
ENDMDL
MODEL 10
REMARK VINA RESULT:      -4.5      1.950      2.341
REMARK  Name = 
REMARK  7 active torsions:
REMARK  status: ('A' for Active; 'I' for Inactive)
REMARK    1  A    between atoms: CA_2  and  CB_3
REMARK    2  A    between atoms: CA_2  and  C_7
REMARK    3  A    between atoms: CB_3  and  CG_4
REMARK    4  A    between atoms: N_9  and  CA_10
REMARK    5  A    between atoms: CA_10  and  CB_11
REMARK    6  A    between atoms: CA_10  and  C_18
REMARK    7  A    between atoms: CB_11  and  CG_12
REMARK                            x       y       z     vdW  Elec       q    Type
REMARK                         _______ _______ _______ _____ _____    ______ ____
ROOT
ATOM     10  CA  PHE A   2       7.380  46.256 -12.816  0.00  0.00    +0.000 C 
ENDROOT
BRANCH  10   9
ATOM      7  C   ASP A   1       5.270  45.277 -13.472  0.00  0.00    +0.000 C 
ATOM      8  O   ASP A   1       4.556  45.578 -12.518  0.00  0.00    +0.000 OA
ATOM      9  N   PHE A   2       6.092  46.442 -13.693  0.00  0.00    +0.000 NA
BRANCH   7   2
ATOM      1  N   ASP A   1       3.282  44.420 -14.369  0.00  0.00    +0.000 NA
ATOM      2  CA  ASP A   1       4.618  45.038 -14.929  0.00  0.00    +0.000 C 
BRANCH   2   3
ATOM      3  CB  ASP A   1       5.358  43.586 -15.075  0.00  0.00    +0.000 C 
BRANCH   3   4
ATOM      4  CG  ASP A   1       5.301  43.087 -16.418  0.00  0.00    +0.000 C 
ATOM      5  OD1 ASP A   1       5.489  41.963 -16.900  0.00  0.00    +0.000 OA
ATOM      6  OD2 ASP A   1       5.395  44.127 -17.360  0.00  0.00    +0.000 OA
ENDBRANCH   3   4
ENDBRANCH   2   3
ENDBRANCH   7   2
ENDBRANCH  10   9
BRANCH  10  18
ATOM     18  C   PHE A   2       7.338  47.706 -12.126  0.00  0.00    +0.000 C 
ATOM     19  O   PHE A   2       7.267  48.725 -12.785  0.00  0.00    +0.000 OA
ATOM     20  OXT PHE A   2       6.831  47.553 -10.848  0.00  0.00    +0.000 OA
ENDBRANCH  10  18
BRANCH  10  11
ATOM     11  CB  PHE A   2       8.320  46.773 -14.070  0.00  0.00    +0.000 C 
BRANCH  11  12
ATOM     12  CG  PHE A   2       8.753  45.575 -14.810  0.00  0.00    +0.000 A 
ATOM     13  CD1 PHE A   2       8.547  45.288 -16.132  0.00  0.00    +0.000 A 
ATOM     14  CE1 PHE A   2       9.102  44.145 -16.686  0.00  0.00    +0.000 A 
ATOM     15  CZ  PHE A   2       8.931  43.028 -15.882  0.00  0.00    +0.000 A 
ATOM     16  CE2 PHE A   2       9.102  43.216 -14.522  0.00  0.00    +0.000 A 
ATOM     17  CD2 PHE A   2       9.192  44.511 -14.021  0.00  0.00    +0.000 A 
ENDBRANCH  11  12
ENDBRANCH  10  11
TORSDOF 7
ENDMDL
