MODEL 1
REMARK VINA RESULT:      -5.3      0.000      0.000
REMARK  Name = 
REMARK  9 active torsions:
REMARK  status: ('A' for Active; 'I' for Inactive)
REMARK    1  A    between atoms: NE_4  and  CD_5
REMARK    2  A    between atoms: CD_5  and  CG_6
REMARK    3  A    between atoms: CG_6  and  CB_7
REMARK    4  A    between atoms: CB_7  and  CA_8
REMARK    5  A    between atoms: CA_8  and  N_9
REMARK    6  A    between atoms: CA_8  and  C_18
REMARK    7  A    between atoms: C_10  and  CA_12
REMARK    8  A    between atoms: CA_12  and  CB_14
REMARK    9  A    between atoms: CB_14  and  CG_15
REMARK                            x       y       z     vdW  Elec       q    Type
REMARK                         _______ _______ _______ _____ _____    ______ ____
ROOT
ATOM      8  CA  ARG A   2      18.384  68.376  11.887  0.00  0.00    +0.000 C 
ENDROOT
BRANCH   8   9
ATOM      9  N   ARG A   2      17.549  67.765  10.713  0.00  0.00    +0.000 NA
ATOM     10  C   ASP A   1      17.964  66.658  10.007  0.00  0.00    +0.000 C 
ATOM     11  O   ASP A   1      19.218  66.484   9.913  0.00  0.00    +0.000 OA
BRANCH  10  12
ATOM     12  CA  ASP A   1      17.202  66.638   8.584  0.00  0.00    +0.000 C 
ATOM     13  N   ASP A   1      17.856  65.272   8.163  0.00  0.00    +0.000 NA
BRANCH  12  14
ATOM     14  CB  ASP A   1      15.891  65.884   9.217  0.00  0.00    +0.000 C 
BRANCH  14  15
ATOM     15  CG  ASP A   1      14.778  66.706   8.675  0.00  0.00    +0.000 C 
ATOM     16  OD1 ASP A   1      14.564  66.757   7.426  0.00  0.00    +0.000 OA
ATOM     17  OD2 ASP A   1      13.988  67.540   9.450  0.00  0.00    +0.000 OA
ENDBRANCH  14  15
ENDBRANCH  12  14
ENDBRANCH  10  12
ENDBRANCH   8   9
BRANCH   8  18
ATOM     18  C   ARG A   2      17.297  67.924  12.986  0.00  0.00    +0.000 C 
ATOM     19  O   ARG A   2      16.109  67.977  12.627  0.00  0.00    +0.000 OA
ATOM     20  OXT ARG A   2      17.703  67.181  14.050  0.00  0.00    +0.000 OA
ENDBRANCH   8  18
BRANCH   8   7
ATOM      7  CB  ARG A   2      17.750  69.887  11.784  0.00  0.00    +0.000 C 
BRANCH   7   6
ATOM      6  CG  ARG A   2      17.908  70.211  10.325  0.00  0.00    +0.000 C 
BRANCH   6   5
ATOM      5  CD  ARG A   2      17.688  71.684  10.063  0.00  0.00    +0.000 C 
BRANCH   5   4
ATOM      1  NH1 ARG A   2      18.055  72.763   7.691  0.00  0.00    +0.000 NA
ATOM      2  CZ  ARG A   2      17.488  72.267   7.676  0.00  0.00    +0.000 C 
ATOM      3  NH2 ARG A   2      17.021  71.703   6.435  0.00  0.00    +0.000 NA
ATOM      4  NE  ARG A   2      16.833  71.857   8.891  0.00  0.00    +0.000 NA
ENDBRANCH   5   4
ENDBRANCH   6   5
ENDBRANCH   7   6
ENDBRANCH   8   7
TORSDOF 9
ENDMDL
MODEL 2
REMARK VINA RESULT:      -5.1      7.280      9.935
REMARK  Name = 
REMARK  9 active torsions:
REMARK  status: ('A' for Active; 'I' for Inactive)
REMARK    1  A    between atoms: NE_4  and  CD_5
REMARK    2  A    between atoms: CD_5  and  CG_6
REMARK    3  A    between atoms: CG_6  and  CB_7
REMARK    4  A    between atoms: CB_7  and  CA_8
REMARK    5  A    between atoms: CA_8  and  N_9
REMARK    6  A    between atoms: CA_8  and  C_18
REMARK    7  A    between atoms: C_10  and  CA_12
REMARK    8  A    between atoms: CA_12  and  CB_14
REMARK    9  A    between atoms: CB_14  and  CG_15
REMARK                            x       y       z     vdW  Elec       q    Type
REMARK                         _______ _______ _______ _____ _____    ______ ____
ROOT
ATOM      8  CA  ARG A   2      19.533  62.493  15.222  0.00  0.00    +0.000 C 
ENDROOT
BRANCH   8   9
ATOM      9  N   ARG A   2      19.122  62.147  16.691  0.00  0.00    +0.000 NA
ATOM     10  C   ASP A   1      17.893  61.613  17.010  0.00  0.00    +0.000 C 
ATOM     11  O   ASP A   1      16.926  61.924  16.248  0.00  0.00    +0.000 OA
BRANCH  10  12
ATOM     12  CA  ASP A   1      17.598  61.895  18.572  0.00  0.00    +0.000 C 
ATOM     13  N   ASP A   1      16.754  60.579  18.733  0.00  0.00    +0.000 NA
BRANCH  12  14
ATOM     14  CB  ASP A   1      18.975  61.140  19.041  0.00  0.00    +0.000 C 
BRANCH  14  15
ATOM     15  CG  ASP A   1      19.006  61.441  20.496  0.00  0.00    +0.000 C 
ATOM     16  OD1 ASP A   1      19.012  60.501  21.348  0.00  0.00    +0.000 OA
ATOM     17  OD2 ASP A   1      18.918  62.721  21.020  0.00  0.00    +0.000 OA
ENDBRANCH  14  15
ENDBRANCH  12  14
ENDBRANCH  10  12
ENDBRANCH   8   9
BRANCH   8  18
ATOM     18  C   ARG A   2      20.445  61.172  15.093  0.00  0.00    +0.000 C 
ATOM     19  O   ARG A   2      20.644  60.761  13.938  0.00  0.00    +0.000 OA
ATOM     20  OXT ARG A   2      21.233  60.808  16.140  0.00  0.00    +0.000 OA
ENDBRANCH   8  18
BRANCH   8   7
ATOM      7  CB  ARG A   2      20.823  63.428  15.617  0.00  0.00    +0.000 C 
BRANCH   7   6
ATOM      6  CG  ARG A   2      20.213  64.467  16.515  0.00  0.00    +0.000 C 
BRANCH   6   5
ATOM      5  CD  ARG A   2      20.200  65.826  15.852  0.00  0.00    +0.000 C 
BRANCH   5   4
ATOM      1  NH1 ARG A   2      18.712  67.921  15.284  0.00  0.00    +0.000 NA
ATOM      2  CZ  ARG A   2      18.586  67.361  14.795  0.00  0.00    +0.000 C 
ATOM      3  NH2 ARG A   2      17.970  67.610  13.517  0.00  0.00    +0.000 NA
ATOM      4  NE  ARG A   2      18.951  66.005  15.114  0.00  0.00    +0.000 NA
ENDBRANCH   5   4
ENDBRANCH   6   5
ENDBRANCH   7   6
ENDBRANCH   8   7
TORSDOF 9
ENDMDL
MODEL 3
REMARK VINA RESULT:      -5.1     20.312     22.583
REMARK  Name = 
REMARK  9 active torsions:
REMARK  status: ('A' for Active; 'I' for Inactive)
REMARK    1  A    between atoms: NE_4  and  CD_5
REMARK    2  A    between atoms: CD_5  and  CG_6
REMARK    3  A    between atoms: CG_6  and  CB_7
REMARK    4  A    between atoms: CB_7  and  CA_8
REMARK    5  A    between atoms: CA_8  and  N_9
REMARK    6  A    between atoms: CA_8  and  C_18
REMARK    7  A    between atoms: C_10  and  CA_12
REMARK    8  A    between atoms: CA_12  and  CB_14
REMARK    9  A    between atoms: CB_14  and  CG_15
REMARK                            x       y       z     vdW  Elec       q    Type
REMARK                         _______ _______ _______ _____ _____    ______ ____
ROOT
ATOM      8  CA  ARG A   2       5.444  51.180  18.174  0.00  0.00    +0.000 C 
ENDROOT
BRANCH   8   9
ATOM      9  N   ARG A   2       6.531  52.086  18.842  0.00  0.00    +0.000 NA
ATOM     10  C   ASP A   1       6.674  52.186  20.208  0.00  0.00    +0.000 C 
ATOM     11  O   ASP A   1       5.624  52.019  20.901  0.00  0.00    +0.000 OA
BRANCH  10  12
ATOM     12  CA  ASP A   1       7.458  53.556  20.546  0.00  0.00    +0.000 C 
ATOM     13  N   ASP A   1       8.329  53.474  19.240  0.00  0.00    +0.000 NA
BRANCH  12  14
ATOM     14  CB  ASP A   1       6.321  54.473  19.802  0.00  0.00    +0.000 C 
BRANCH  14  15
ATOM     15  CG  ASP A   1       6.186  55.613  20.746  0.00  0.00    +0.000 C 
ATOM     16  OD1 ASP A   1       6.513  55.482  21.964  0.00  0.00    +0.000 OA
ATOM     17  OD2 ASP A   1       5.607  56.826  20.410  0.00  0.00    +0.000 OA
ENDBRANCH  14  15
ENDBRANCH  12  14
ENDBRANCH  10  12
ENDBRANCH   8   9
BRANCH   8  18
ATOM     18  C   ARG A   2       6.447  50.725  17.000  0.00  0.00    +0.000 C 
ATOM     19  O   ARG A   2       6.128  49.694  16.385  0.00  0.00    +0.000 OA
ATOM     20  OXT ARG A   2       7.329  51.628  16.496  0.00  0.00    +0.000 OA
ENDBRANCH   8  18
BRANCH   8   7
ATOM      7  CB  ARG A   2       4.782  52.360  17.244  0.00  0.00    +0.000 C 
BRANCH   7   6
ATOM      6  CG  ARG A   2       3.340  51.944  17.161  0.00  0.00    +0.000 C 
BRANCH   6   5
ATOM      5  CD  ARG A   2       2.555  52.452  18.350  0.00  0.00    +0.000 C 
BRANCH   5   4
ATOM      1  NH1 ARG A   2       0.176  52.271  19.463  0.00  0.00    +0.000 NA
ATOM      2  CZ  ARG A   2       0.188  52.813  18.938  0.00  0.00    +0.000 C 
ATOM      3  NH2 ARG A   2      -0.813  53.849  18.913  0.00  0.00    +0.000 NA
ATOM      4  NE  ARG A   2       1.211  52.840  17.925  0.00  0.00    +0.000 NA
ENDBRANCH   5   4
ENDBRANCH   6   5
ENDBRANCH   7   6
ENDBRANCH   8   7
TORSDOF 9
ENDMDL
MODEL 4
REMARK VINA RESULT:      -5.1      2.002      2.586
REMARK  Name = 
REMARK  9 active torsions:
REMARK  status: ('A' for Active; 'I' for Inactive)
REMARK    1  A    between atoms: NE_4  and  CD_5
REMARK    2  A    between atoms: CD_5  and  CG_6
REMARK    3  A    between atoms: CG_6  and  CB_7
REMARK    4  A    between atoms: CB_7  and  CA_8
REMARK    5  A    between atoms: CA_8  and  N_9
REMARK    6  A    between atoms: CA_8  and  C_18
REMARK    7  A    between atoms: C_10  and  CA_12
REMARK    8  A    between atoms: CA_12  and  CB_14
REMARK    9  A    between atoms: CB_14  and  CG_15
REMARK                            x       y       z     vdW  Elec       q    Type
REMARK                         _______ _______ _______ _____ _____    ______ ____
ROOT
ATOM      8  CA  ARG A   2      20.021  68.347  13.319  0.00  0.00    +0.000 C 
ENDROOT
BRANCH   8   9
ATOM      9  N   ARG A   2      18.818  67.382  13.053  0.00  0.00    +0.000 NA
ATOM     10  C   ASP A   1      18.920  66.280  12.233  0.00  0.00    +0.000 C 
ATOM     11  O   ASP A   1      19.757  66.358  11.282  0.00  0.00    +0.000 OA
BRANCH  10  12
ATOM     12  CA  ASP A   1      17.438  65.856  11.752  0.00  0.00    +0.000 C 
ATOM     13  N   ASP A   1      16.750  66.966  12.627  0.00  0.00    +0.000 NA
BRANCH  12  14
ATOM     14  CB  ASP A   1      17.503  66.844  10.445  0.00  0.00    +0.000 C 
BRANCH  14  15
ATOM     15  CG  ASP A   1      16.073  66.914  10.047  0.00  0.00    +0.000 C 
ATOM     16  OD1 ASP A   1      15.404  65.853   9.861  0.00  0.00    +0.000 OA
ATOM     17  OD2 ASP A   1      15.414  68.096   9.746  0.00  0.00    +0.000 OA
ENDBRANCH  14  15
ENDBRANCH  12  14
ENDBRANCH  10  12
ENDBRANCH   8   9
BRANCH   8  18
ATOM     18  C   ARG A   2      19.701  68.422  14.895  0.00  0.00    +0.000 C 
ATOM     19  O   ARG A   2      18.584  68.003  15.242  0.00  0.00    +0.000 OA
ATOM     20  OXT ARG A   2      20.730  68.562  15.773  0.00  0.00    +0.000 OA
ENDBRANCH   8  18
BRANCH   8   7
ATOM      7  CB  ARG A   2      19.199  69.736  13.017  0.00  0.00    +0.000 C 
BRANCH   7   6
ATOM      6  CG  ARG A   2      19.225  69.815  11.517  0.00  0.00    +0.000 C 
BRANCH   6   5
ATOM      5  CD  ARG A   2      17.955  70.432  10.978  0.00  0.00    +0.000 C 
BRANCH   5   4
ATOM      1  NH1 ARG A   2      16.866  72.134   9.291  0.00  0.00    +0.000 NA
ATOM      2  CZ  ARG A   2      17.513  71.860   9.017  0.00  0.00    +0.000 C 
ATOM      3  NH2 ARG A   2      18.220  72.532   7.957  0.00  0.00    +0.000 NA
ATOM      4  NE  ARG A   2      18.079  70.642   9.537  0.00  0.00    +0.000 NA
ENDBRANCH   5   4
ENDBRANCH   6   5
ENDBRANCH   7   6
ENDBRANCH   8   7
TORSDOF 9
ENDMDL
MODEL 5
REMARK VINA RESULT:      -5.0      5.868      8.081
REMARK  Name = 
REMARK  9 active torsions:
REMARK  status: ('A' for Active; 'I' for Inactive)
REMARK    1  A    between atoms: NE_4  and  CD_5
REMARK    2  A    between atoms: CD_5  and  CG_6
REMARK    3  A    between atoms: CG_6  and  CB_7
REMARK    4  A    between atoms: CB_7  and  CA_8
REMARK    5  A    between atoms: CA_8  and  N_9
REMARK    6  A    between atoms: CA_8  and  C_18
REMARK    7  A    between atoms: C_10  and  CA_12
REMARK    8  A    between atoms: CA_12  and  CB_14
REMARK    9  A    between atoms: CB_14  and  CG_15
REMARK                            x       y       z     vdW  Elec       q    Type
REMARK                         _______ _______ _______ _____ _____    ______ ____
ROOT
ATOM      8  CA  ARG A   2      19.960  63.778  14.428  0.00  0.00    +0.000 C 
ENDROOT
BRANCH   8   9
ATOM      9  N   ARG A   2      19.757  63.217  15.874  0.00  0.00    +0.000 NA
ATOM     10  C   ASP A   1      19.912  61.882  16.179  0.00  0.00    +0.000 C 
ATOM     11  O   ASP A   1      19.658  61.056  15.249  0.00  0.00    +0.000 OA
BRANCH  10  12
ATOM     12  CA  ASP A   1      19.118  61.572  17.551  0.00  0.00    +0.000 C 
ATOM     13  N   ASP A   1      18.952  63.096  17.894  0.00  0.00    +0.000 NA
BRANCH  12  14
ATOM     14  CB  ASP A   1      17.670  61.526  16.785  0.00  0.00    +0.000 C 
BRANCH  14  15
ATOM     15  CG  ASP A   1      16.728  61.390  17.926  0.00  0.00    +0.000 C 
ATOM     16  OD1 ASP A   1      15.704  62.135  18.007  0.00  0.00    +0.000 OA
ATOM     17  OD2 ASP A   1      16.945  60.553  19.009  0.00  0.00    +0.000 OA
ENDBRANCH  14  15
ENDBRANCH  12  14
ENDBRANCH  10  12
ENDBRANCH   8   9
BRANCH   8  18
ATOM     18  C   ARG A   2      21.431  64.333  14.776  0.00  0.00    +0.000 C 
ATOM     19  O   ARG A   2      21.540  64.935  15.857  0.00  0.00    +0.000 OA
ATOM     20  OXT ARG A   2      22.504  63.823  14.115  0.00  0.00    +0.000 OA
ENDBRANCH   8  18
BRANCH   8   7
ATOM      7  CB  ARG A   2      19.267  65.239  14.709  0.00  0.00    +0.000 C 
BRANCH   7   6
ATOM      6  CG  ARG A   2      19.176  65.831  13.331  0.00  0.00    +0.000 C 
BRANCH   6   5
ATOM      5  CD  ARG A   2      17.978  66.746  13.205  0.00  0.00    +0.000 C 
BRANCH   5   4
ATOM      1  NH1 ARG A   2      15.426  67.038  12.631  0.00  0.00    +0.000 NA
ATOM      2  CZ  ARG A   2      15.829  66.903  12.008  0.00  0.00    +0.000 C 
ATOM      3  NH2 ARG A   2      15.311  67.219  10.701  0.00  0.00    +0.000 NA
ATOM      4  NE  ARG A   2      17.141  66.314  12.088  0.00  0.00    +0.000 NA
ENDBRANCH   5   4
ENDBRANCH   6   5
ENDBRANCH   7   6
ENDBRANCH   8   7
TORSDOF 9
ENDMDL
MODEL 6
REMARK VINA RESULT:      -4.9     12.084     13.451
REMARK  Name = 
REMARK  9 active torsions:
REMARK  status: ('A' for Active; 'I' for Inactive)
REMARK    1  A    between atoms: NE_4  and  CD_5
REMARK    2  A    between atoms: CD_5  and  CG_6
REMARK    3  A    between atoms: CG_6  and  CB_7
REMARK    4  A    between atoms: CB_7  and  CA_8
REMARK    5  A    between atoms: CA_8  and  N_9
REMARK    6  A    between atoms: CA_8  and  C_18
REMARK    7  A    between atoms: C_10  and  CA_12
REMARK    8  A    between atoms: CA_12  and  CB_14
REMARK    9  A    between atoms: CB_14  and  CG_15
REMARK                            x       y       z     vdW  Elec       q    Type
REMARK                         _______ _______ _______ _____ _____    ______ ____
ROOT
ATOM      8  CA  ARG A   2      10.846  57.372   6.703  0.00  0.00    +0.000 C 
ENDROOT
BRANCH   8   9
ATOM      9  N   ARG A   2       9.828  57.700   7.845  0.00  0.00    +0.000 NA
ATOM     10  C   ASP A   1       8.465  57.596   7.674  0.00  0.00    +0.000 C 
ATOM     11  O   ASP A   1       8.026  57.790   6.499  0.00  0.00    +0.000 OA
BRANCH  10  12
ATOM     12  CA  ASP A   1       7.734  58.502   8.793  0.00  0.00    +0.000 C 
ATOM     13  N   ASP A   1       8.464  59.812   8.323  0.00  0.00    +0.000 NA
BRANCH  12  14
ATOM     14  CB  ASP A   1       6.451  58.796   7.817  0.00  0.00    +0.000 C 
BRANCH  14  15
ATOM     15  CG  ASP A   1       5.462  59.353   8.776  0.00  0.00    +0.000 C 
ATOM     16  OD1 ASP A   1       4.773  58.582   9.511  0.00  0.00    +0.000 OA
ATOM     17  OD2 ASP A   1       5.143  60.700   8.859  0.00  0.00    +0.000 OA
ENDBRANCH  14  15
ENDBRANCH  12  14
ENDBRANCH  10  12
ENDBRANCH   8   9
BRANCH   8  18
ATOM     18  C   ARG A   2      11.146  55.906   7.299  0.00  0.00    +0.000 C 
ATOM     19  O   ARG A   2      11.326  55.007   6.461  0.00  0.00    +0.000 OA
ATOM     20  OXT ARG A   2      11.551  55.788   8.592  0.00  0.00    +0.000 OA
ENDBRANCH   8  18
BRANCH   8   7
ATOM      7  CB  ARG A   2      12.159  58.017   7.450  0.00  0.00    +0.000 C 
BRANCH   7   6
ATOM      6  CG  ARG A   2      13.039  58.399   6.294  0.00  0.00    +0.000 C 
BRANCH   6   5
ATOM      5  CD  ARG A   2      12.225  58.937   5.139  0.00  0.00    +0.000 C 
BRANCH   5   4
ATOM      1  NH1 ARG A   2      13.801  60.294   3.525  0.00  0.00    +0.000 NA
ATOM      2  CZ  ARG A   2      13.892  59.552   3.429  0.00  0.00    +0.000 C 
ATOM      3  NH2 ARG A   2      15.069  59.020   2.790  0.00  0.00    +0.000 NA
ATOM      4  NE  ARG A   2      12.889  58.620   3.876  0.00  0.00    +0.000 NA
ENDBRANCH   5   4
ENDBRANCH   6   5
ENDBRANCH   7   6
ENDBRANCH   8   7
TORSDOF 9
ENDMDL
MODEL 7
REMARK VINA RESULT:      -4.9     19.300     21.488
REMARK  Name = 
REMARK  9 active torsions:
REMARK  status: ('A' for Active; 'I' for Inactive)
REMARK    1  A    between atoms: NE_4  and  CD_5
REMARK    2  A    between atoms: CD_5  and  CG_6
REMARK    3  A    between atoms: CG_6  and  CB_7
REMARK    4  A    between atoms: CB_7  and  CA_8
REMARK    5  A    between atoms: CA_8  and  N_9
REMARK    6  A    between atoms: CA_8  and  C_18
REMARK    7  A    between atoms: C_10  and  CA_12
REMARK    8  A    between atoms: CA_12  and  CB_14
REMARK    9  A    between atoms: CB_14  and  CG_15
REMARK                            x       y       z     vdW  Elec       q    Type
REMARK                         _______ _______ _______ _____ _____    ______ ____
ROOT
ATOM      8  CA  ARG A   2       7.644  55.137  22.122  0.00  0.00    +0.000 C 
ENDROOT
BRANCH   8   9
ATOM      9  N   ARG A   2       6.502  55.585  23.092  0.00  0.00    +0.000 NA
ATOM     10  C   ASP A   1       5.289  56.058  22.640  0.00  0.00    +0.000 C 
ATOM     11  O   ASP A   1       5.296  56.652  21.519  0.00  0.00    +0.000 OA
BRANCH  10  12
ATOM     12  CA  ASP A   1       4.599  56.917  23.820  0.00  0.00    +0.000 C 
ATOM     13  N   ASP A   1       3.660  57.685  22.820  0.00  0.00    +0.000 NA
BRANCH  12  14
ATOM     14  CB  ASP A   1       3.465  55.765  24.091  0.00  0.00    +0.000 C 
BRANCH  14  15
ATOM     15  CG  ASP A   1       2.965  56.143  25.438  0.00  0.00    +0.000 C 
ATOM     16  OD1 ASP A   1       3.566  57.023  26.125  0.00  0.00    +0.000 OA
ATOM     17  OD2 ASP A   1       1.910  55.507  26.075  0.00  0.00    +0.000 OA
ENDBRANCH  14  15
ENDBRANCH  12  14
ENDBRANCH  10  12
ENDBRANCH   8   9
BRANCH   8  18
ATOM     18  C   ARG A   2       7.380  53.577  22.421  0.00  0.00    +0.000 C 
ATOM     19  O   ARG A   2       7.429  53.240  23.616  0.00  0.00    +0.000 OA
ATOM     20  OXT ARG A   2       6.771  52.816  21.474  0.00  0.00    +0.000 OA
ENDBRANCH   8  18
BRANCH   8   7
ATOM      7  CB  ARG A   2       8.854  55.215  23.229  0.00  0.00    +0.000 C 
BRANCH   7   6
ATOM      6  CG  ARG A   2       9.857  56.110  22.559  0.00  0.00    +0.000 C 
BRANCH   6   5
ATOM      5  CD  ARG A   2      11.161  56.143  23.325  0.00  0.00    +0.000 C 
BRANCH   5   4
ATOM      1  NH1 ARG A   2      12.755  57.591  24.838  0.00  0.00    +0.000 NA
ATOM      2  CZ  ARG A   2      12.823  57.785  24.112  0.00  0.00    +0.000 C 
ATOM      3  NH2 ARG A   2      13.976  58.507  23.637  0.00  0.00    +0.000 NA
ATOM      4  NE  ARG A   2      11.799  57.447  23.157  0.00  0.00    +0.000 NA
ENDBRANCH   5   4
ENDBRANCH   6   5
ENDBRANCH   7   6
ENDBRANCH   8   7
TORSDOF 9
ENDMDL
MODEL 8
REMARK VINA RESULT:      -4.8     12.695     14.906
REMARK  Name = 
REMARK  9 active torsions:
REMARK  status: ('A' for Active; 'I' for Inactive)
REMARK    1  A    between atoms: NE_4  and  CD_5
REMARK    2  A    between atoms: CD_5  and  CG_6
REMARK    3  A    between atoms: CG_6  and  CB_7
REMARK    4  A    between atoms: CB_7  and  CA_8
REMARK    5  A    between atoms: CA_8  and  N_9
REMARK    6  A    between atoms: CA_8  and  C_18
REMARK    7  A    between atoms: C_10  and  CA_12
REMARK    8  A    between atoms: CA_12  and  CB_14
REMARK    9  A    between atoms: CB_14  and  CG_15
REMARK                            x       y       z     vdW  Elec       q    Type
REMARK                         _______ _______ _______ _____ _____    ______ ____
ROOT
ATOM      8  CA  ARG A   2       7.700  58.576   7.110  0.00  0.00    +0.000 C 
ENDROOT
BRANCH   8   9
ATOM      9  N   ARG A   2       9.184  58.081   7.102  0.00  0.00    +0.000 NA
ATOM     10  C   ASP A   1       9.726  57.383   6.045  0.00  0.00    +0.000 C 
ATOM     11  O   ASP A   1       8.925  56.668   5.369  0.00  0.00    +0.000 OA
BRANCH  10  12
ATOM     12  CA  ASP A   1      11.023  56.577   6.570  0.00  0.00    +0.000 C 
ATOM     13  N   ASP A   1      11.917  57.080   5.379  0.00  0.00    +0.000 NA
BRANCH  12  14
ATOM     14  CB  ASP A   1      11.495  57.821   7.528  0.00  0.00    +0.000 C 
BRANCH  14  15
ATOM     15  CG  ASP A   1      12.085  57.103   8.687  0.00  0.00    +0.000 C 
ATOM     16  OD1 ASP A   1      13.031  57.624   9.353  0.00  0.00    +0.000 OA
ATOM     17  OD2 ASP A   1      11.742  55.810   9.049  0.00  0.00    +0.000 OA
ENDBRANCH  14  15
ENDBRANCH  12  14
ENDBRANCH  10  12
ENDBRANCH   8   9
BRANCH   8  18
ATOM     18  C   ARG A   2       8.144  60.122   7.169  0.00  0.00    +0.000 C 
ATOM     19  O   ARG A   2       8.936  60.423   8.077  0.00  0.00    +0.000 OA
ATOM     20  OXT ARG A   2       7.962  60.906   6.073  0.00  0.00    +0.000 OA
ENDBRANCH   8  18
BRANCH   8   7
ATOM      7  CB  ARG A   2       7.500  58.500   8.738  0.00  0.00    +0.000 C 
BRANCH   7   6
ATOM      6  CG  ARG A   2       6.082  58.965   8.917  0.00  0.00    +0.000 C 
BRANCH   6   5
ATOM      5  CD  ARG A   2       5.257  57.936   9.657  0.00  0.00    +0.000 C 
BRANCH   5   4
ATOM      1  NH1 ARG A   2       6.308  56.441  11.551  0.00  0.00    +0.000 NA
ATOM      2  CZ  ARG A   2       6.146  56.029  10.942  0.00  0.00    +0.000 C 
ATOM      3  NH2 ARG A   2       6.023  54.596  11.021  0.00  0.00    +0.000 NA
ATOM      4  NE  ARG A   2       5.953  56.651   9.657  0.00  0.00    +0.000 NA
ENDBRANCH   5   4
ENDBRANCH   6   5
ENDBRANCH   7   6
ENDBRANCH   8   7
TORSDOF 9
ENDMDL
MODEL 9
REMARK VINA RESULT:      -4.8      2.539      4.932
REMARK  Name = 
REMARK  9 active torsions:
REMARK  status: ('A' for Active; 'I' for Inactive)
REMARK    1  A    between atoms: NE_4  and  CD_5
REMARK    2  A    between atoms: CD_5  and  CG_6
REMARK    3  A    between atoms: CG_6  and  CB_7
REMARK    4  A    between atoms: CB_7  and  CA_8
REMARK    5  A    between atoms: CA_8  and  N_9
REMARK    6  A    between atoms: CA_8  and  C_18
REMARK    7  A    between atoms: C_10  and  CA_12
REMARK    8  A    between atoms: CA_12  and  CB_14
REMARK    9  A    between atoms: CB_14  and  CG_15
REMARK                            x       y       z     vdW  Elec       q    Type
REMARK                         _______ _______ _______ _____ _____    ______ ____
ROOT
ATOM      8  CA  ARG A   2      17.346  68.306  11.525  0.00  0.00    +0.000 C 
ENDROOT
BRANCH   8   9
ATOM      9  N   ARG A   2      18.101  67.840  12.813  0.00  0.00    +0.000 NA
ATOM     10  C   ASP A   1      18.858  68.700  13.579  0.00  0.00    +0.000 C 
ATOM     11  O   ASP A   1      19.396  69.675  12.971  0.00  0.00    +0.000 OA
BRANCH  10  12
ATOM     12  CA  ASP A   1      19.900  67.831  14.453  0.00  0.00    +0.000 C 
ATOM     13  N   ASP A   1      19.530  68.578  15.785  0.00  0.00    +0.000 NA
BRANCH  12  14
ATOM     14  CB  ASP A   1      18.792  66.656  14.735  0.00  0.00    +0.000 C 
BRANCH  14  15
ATOM     15  CG  ASP A   1      19.645  65.553  15.250  0.00  0.00    +0.000 C 
ATOM     16  OD1 ASP A   1      20.705  65.219  14.638  0.00  0.00    +0.000 OA
ATOM     17  OD2 ASP A   1      19.304  64.756  16.332  0.00  0.00    +0.000 OA
ENDBRANCH  14  15
ENDBRANCH  12  14
ENDBRANCH  10  12
ENDBRANCH   8   9
BRANCH   8  18
ATOM     18  C   ARG A   2      16.233  67.152  11.678  0.00  0.00    +0.000 C 
ATOM     19  O   ARG A   2      16.468  66.090  11.079  0.00  0.00    +0.000 OA
ATOM     20  OXT ARG A   2      15.337  67.229  12.698  0.00  0.00    +0.000 OA
ENDBRANCH   8  18
BRANCH   8   7
ATOM      7  CB  ARG A   2      18.229  67.408  10.471  0.00  0.00    +0.000 C 
BRANCH   7   6
ATOM      6  CG  ARG A   2      18.665  68.427   9.456  0.00  0.00    +0.000 C 
BRANCH   6   5
ATOM      5  CD  ARG A   2      18.025  69.771   9.719  0.00  0.00    +0.000 C 
BRANCH   5   4
ATOM      1  NH1 ARG A   2      16.998  72.111   9.088  0.00  0.00    +0.000 NA
ATOM      2  CZ  ARG A   2      17.514  71.899   8.582  0.00  0.00    +0.000 C 
ATOM      3  NH2 ARG A   2      18.128  72.854   7.695  0.00  0.00    +0.000 NA
ATOM      4  NE  ARG A   2      17.916  70.520   8.469  0.00  0.00    +0.000 NA
ENDBRANCH   5   4
ENDBRANCH   6   5
ENDBRANCH   7   6
ENDBRANCH   8   7
TORSDOF 9
ENDMDL
MODEL 10
REMARK VINA RESULT:      -4.8      4.505      7.294
REMARK  Name = 
REMARK  9 active torsions:
REMARK  status: ('A' for Active; 'I' for Inactive)
REMARK    1  A    between atoms: NE_4  and  CD_5
REMARK    2  A    between atoms: CD_5  and  CG_6
REMARK    3  A    between atoms: CG_6  and  CB_7
REMARK    4  A    between atoms: CB_7  and  CA_8
REMARK    5  A    between atoms: CA_8  and  N_9
REMARK    6  A    between atoms: CA_8  and  C_18
REMARK    7  A    between atoms: C_10  and  CA_12
REMARK    8  A    between atoms: CA_12  and  CB_14
REMARK    9  A    between atoms: CB_14  and  CG_15
REMARK                            x       y       z     vdW  Elec       q    Type
REMARK                         _______ _______ _______ _____ _____    ______ ____
ROOT
ATOM      8  CA  ARG A   2      18.835  67.241  14.886  0.00  0.00    +0.000 C 
ENDROOT
BRANCH   8   9
ATOM      9  N   ARG A   2      18.729  67.524  13.351  0.00  0.00    +0.000 NA
ATOM     10  C   ASP A   1      17.646  67.125  12.598  0.00  0.00    +0.000 C 
ATOM     11  O   ASP A   1      17.039  66.081  12.989  0.00  0.00    +0.000 OA
BRANCH  10  12
ATOM     12  CA  ASP A   1      18.089  67.069  11.047  0.00  0.00    +0.000 C 
ATOM     13  N   ASP A   1      18.774  65.664  11.209  0.00  0.00    +0.000 NA
BRANCH  12  14
ATOM     14  CB  ASP A   1      16.668  66.391  10.592  0.00  0.00    +0.000 C 
BRANCH  14  15
ATOM     15  CG  ASP A   1      15.924  67.566  10.070  0.00  0.00    +0.000 C 
ATOM     16  OD1 ASP A   1      14.722  67.448   9.684  0.00  0.00    +0.000 OA
ATOM     17  OD2 ASP A   1      16.498  68.811   9.862  0.00  0.00    +0.000 OA
ENDBRANCH  14  15
ENDBRANCH  12  14
ENDBRANCH  10  12
ENDBRANCH   8   9
BRANCH   8  18
ATOM     18  C   ARG A   2      19.861  68.463  15.109  0.00  0.00    +0.000 C 
ATOM     19  O   ARG A   2      20.407  68.905  14.085  0.00  0.00    +0.000 OA
ATOM     20  OXT ARG A   2      19.801  69.173  16.267  0.00  0.00    +0.000 OA
ENDBRANCH   8  18
BRANCH   8   7
ATOM      7  CB  ARG A   2      20.056  66.148  14.777  0.00  0.00    +0.000 C 
BRANCH   7   6
ATOM      6  CG  ARG A   2      19.829  65.281  15.984  0.00  0.00    +0.000 C 
BRANCH   6   5
ATOM      5  CD  ARG A   2      19.552  63.849  15.586  0.00  0.00    +0.000 C 
BRANCH   5   4
ATOM      1  NH1 ARG A   2      17.754  61.975  16.015  0.00  0.00    +0.000 NA
ATOM      2  CZ  ARG A   2      18.304  61.944  16.530  0.00  0.00    +0.000 C 
ATOM      3  NH2 ARG A   2      18.525  60.755  17.314  0.00  0.00    +0.000 NA
ATOM      4  NE  ARG A   2      19.164  63.075  16.763  0.00  0.00    +0.000 NA
ENDBRANCH   5   4
ENDBRANCH   6   5
ENDBRANCH   7   6
ENDBRANCH   8   7
TORSDOF 9
ENDMDL
