MODEL 1
REMARK VINA RESULT:      -5.0      0.000      0.000
REMARK  Name = 
REMARK  8 active torsions:
REMARK  status: ('A' for Active; 'I' for Inactive)
REMARK    1  A    between atoms: CA_2  and  CB_3
REMARK    2  A    between atoms: CA_2  and  C_7
REMARK    3  A    between atoms: CB_3  and  CG_4
REMARK    4  A    between atoms: N_9  and  CA_10
REMARK    5  A    between atoms: CA_10  and  CB_11
REMARK    6  A    between atoms: CA_10  and  C_16
REMARK    7  A    between atoms: CB_11  and  CG_12
REMARK    8  A    between atoms: CG_12  and  CD_13
REMARK                            x       y       z     vdW  Elec       q    Type
REMARK                         _______ _______ _______ _____ _____    ______ ____
ROOT
ATOM      7  C   ASP A   1      24.407  57.643  -5.834  0.00  0.00    +0.000 C 
ATOM      8  O   ASP A   1      23.597  57.980  -6.734  0.00  0.00    +0.000 OA
ATOM      9  N   GLU A   2      23.827  56.899  -4.770  0.00  0.00    +0.000 NA
ENDROOT
BRANCH   7   2
ATOM      1  N   ASP A   1      25.182  56.413  -7.670  0.00  0.00    +0.000 NA
ATOM      2  CA  ASP A   1      25.786  56.958  -6.325  0.00  0.00    +0.000 C 
BRANCH   2   3
ATOM      3  CB  ASP A   1      26.321  58.331  -7.056  0.00  0.00    +0.000 C 
BRANCH   3   4
ATOM      4  CG  ASP A   1      27.707  58.117  -7.468  0.00  0.00    +0.000 C 
ATOM      5  OD1 ASP A   1      28.010  58.151  -8.700  0.00  0.00    +0.000 OA
ATOM      6  OD2 ASP A   1      28.409  57.140  -6.746  0.00  0.00    +0.000 OA
ENDBRANCH   3   4
ENDBRANCH   2   3
ENDBRANCH   7   2
BRANCH   9  10
ATOM     10  CA  GLU A   2      22.305  56.511  -4.951  0.00  0.00    +0.000 C 
BRANCH  10  16
ATOM     16  C   GLU A   2      22.613  54.932  -5.103  0.00  0.00    +0.000 C 
ATOM     17  O   GLU A   2      22.303  54.373  -6.153  0.00  0.00    +0.000 OA
ATOM     18  OXT GLU A   2      22.274  54.233  -3.938  0.00  0.00    +0.000 OA
ENDBRANCH  10  16
BRANCH  10  11
ATOM     11  CB  GLU A   2      22.060  56.445  -3.328  0.00  0.00    +0.000 C 
BRANCH  11  12
ATOM     12  CG  GLU A   2      22.417  57.636  -2.656  0.00  0.00    +0.000 C 
BRANCH  12  13
ATOM     13  CD  GLU A   2      21.512  58.727  -2.381  0.00  0.00    +0.000 C 
ATOM     14  OE1 GLU A   2      21.268  59.490  -3.371  0.00  0.00    +0.000 OA
ATOM     15  OE2 GLU A   2      20.375  58.467  -1.604  0.00  0.00    +0.000 OA
ENDBRANCH  12  13
ENDBRANCH  11  12
ENDBRANCH  10  11
ENDBRANCH   9  10
TORSDOF 8
ENDMDL
MODEL 2
REMARK VINA RESULT:      -4.9     16.522     20.801
REMARK  Name = 
REMARK  8 active torsions:
REMARK  status: ('A' for Active; 'I' for Inactive)
REMARK    1  A    between atoms: CA_2  and  CB_3
REMARK    2  A    between atoms: CA_2  and  C_7
REMARK    3  A    between atoms: CB_3  and  CG_4
REMARK    4  A    between atoms: N_9  and  CA_10
REMARK    5  A    between atoms: CA_10  and  CB_11
REMARK    6  A    between atoms: CA_10  and  C_16
REMARK    7  A    between atoms: CB_11  and  CG_12
REMARK    8  A    between atoms: CG_12  and  CD_13
REMARK                            x       y       z     vdW  Elec       q    Type
REMARK                         _______ _______ _______ _____ _____    ______ ____
ROOT
ATOM      7  C   ASP A   1       7.820  58.634   8.302  0.00  0.00    +0.000 C 
ATOM      8  O   ASP A   1       8.439  59.706   8.517  0.00  0.00    +0.000 OA
ATOM      9  N   GLU A   2       8.658  57.500   8.108  0.00  0.00    +0.000 NA
ENDROOT
BRANCH   7   2
ATOM      1  N   ASP A   1       5.528  58.172   8.181  0.00  0.00    +0.000 NA
ATOM      2  CA  ASP A   1       6.610  58.283   9.315  0.00  0.00    +0.000 C 
BRANCH   2   3
ATOM      3  CB  ASP A   1       6.909  56.666   9.268  0.00  0.00    +0.000 C 
BRANCH   3   4
ATOM      4  CG  ASP A   1       6.230  56.045  10.403  0.00  0.00    +0.000 C 
ATOM      5  OD1 ASP A   1       6.576  56.349  11.586  0.00  0.00    +0.000 OA
ATOM      6  OD2 ASP A   1       5.905  54.689  10.246  0.00  0.00    +0.000 OA
ENDBRANCH   3   4
ENDBRANCH   2   3
ENDBRANCH   7   2
BRANCH   9  10
ATOM     10  CA  GLU A   2      10.205  57.744   8.319  0.00  0.00    +0.000 C 
BRANCH  10  16
ATOM     16  C   GLU A   2      10.578  56.176   8.208  0.00  0.00    +0.000 C 
ATOM     17  O   GLU A   2      11.669  55.802   8.633  0.00  0.00    +0.000 OA
ATOM     18  OXT GLU A   2      10.220  55.656   6.958  0.00  0.00    +0.000 OA
ENDBRANCH  10  16
BRANCH  10  11
ATOM     11  CB  GLU A   2      10.441  58.053   6.724  0.00  0.00    +0.000 C 
BRANCH  11  12
ATOM     12  CG  GLU A   2      11.441  59.021   6.479  0.00  0.00    +0.000 C 
BRANCH  12  13
ATOM     13  CD  GLU A   2      12.781  58.724   6.030  0.00  0.00    +0.000 C 
ATOM     14  OE1 GLU A   2      12.979  57.516   5.683  0.00  0.00    +0.000 OA
ATOM     15  OE2 GLU A   2      13.415  59.642   5.182  0.00  0.00    +0.000 OA
ENDBRANCH  12  13
ENDBRANCH  11  12
ENDBRANCH  10  11
ENDBRANCH   9  10
TORSDOF 8
ENDMDL
MODEL 3
REMARK VINA RESULT:      -4.8     16.564     20.310
REMARK  Name = 
REMARK  8 active torsions:
REMARK  status: ('A' for Active; 'I' for Inactive)
REMARK    1  A    between atoms: CA_2  and  CB_3
REMARK    2  A    between atoms: CA_2  and  C_7
REMARK    3  A    between atoms: CB_3  and  CG_4
REMARK    4  A    between atoms: N_9  and  CA_10
REMARK    5  A    between atoms: CA_10  and  CB_11
REMARK    6  A    between atoms: CA_10  and  C_16
REMARK    7  A    between atoms: CB_11  and  CG_12
REMARK    8  A    between atoms: CG_12  and  CD_13
REMARK                            x       y       z     vdW  Elec       q    Type
REMARK                         _______ _______ _______ _____ _____    ______ ____
ROOT
ATOM      7  C   ASP A   1       9.738  56.324   7.948  0.00  0.00    +0.000 C 
ATOM      8  O   ASP A   1       9.591  55.922   9.129  0.00  0.00    +0.000 OA
ATOM      9  N   GLU A   2       8.952  57.460   7.612  0.00  0.00    +0.000 NA
ENDROOT
BRANCH   7   2
ATOM      1  N   ASP A   1      11.258  55.191   6.573  0.00  0.00    +0.000 NA
ATOM      2  CA  ASP A   1      11.259  56.507   7.432  0.00  0.00    +0.000 C 
BRANCH   2   3
ATOM      3  CB  ASP A   1      10.813  57.420   6.138  0.00  0.00    +0.000 C 
BRANCH   3   4
ATOM      4  CG  ASP A   1      11.857  58.414   5.900  0.00  0.00    +0.000 C 
ATOM      5  OD1 ASP A   1      12.950  58.062   5.358  0.00  0.00    +0.000 OA
ATOM      6  OD2 ASP A   1      12.018  59.376   6.907  0.00  0.00    +0.000 OA
ENDBRANCH   3   4
ENDBRANCH   2   3
ENDBRANCH   7   2
BRANCH   9  10
ATOM     10  CA  GLU A   2       8.130  58.104   8.799  0.00  0.00    +0.000 C 
BRANCH  10  16
ATOM     16  C   GLU A   2       8.008  59.544   8.078  0.00  0.00    +0.000 C 
ATOM     17  O   GLU A   2       8.985  60.291   8.091  0.00  0.00    +0.000 OA
ATOM     18  OXT GLU A   2       6.787  60.161   8.378  0.00  0.00    +0.000 OA
ENDBRANCH  10  16
BRANCH  10  11
ATOM     11  CB  GLU A   2       6.707  57.536   8.209  0.00  0.00    +0.000 C 
BRANCH  11  12
ATOM     12  CG  GLU A   2       6.036  56.666   9.098  0.00  0.00    +0.000 C 
BRANCH  12  13
ATOM     13  CD  GLU A   2       6.100  56.752  10.538  0.00  0.00    +0.000 C 
ATOM     14  OE1 GLU A   2       4.985  56.949  11.118  0.00  0.00    +0.000 OA
ATOM     15  OE2 GLU A   2       6.912  55.836  11.221  0.00  0.00    +0.000 OA
ENDBRANCH  12  13
ENDBRANCH  11  12
ENDBRANCH  10  11
ENDBRANCH   9  10
TORSDOF 8
ENDMDL
MODEL 4
REMARK VINA RESULT:      -4.8      9.698     10.977
REMARK  Name = 
REMARK  8 active torsions:
REMARK  status: ('A' for Active; 'I' for Inactive)
REMARK    1  A    between atoms: CA_2  and  CB_3
REMARK    2  A    between atoms: CA_2  and  C_7
REMARK    3  A    between atoms: CB_3  and  CG_4
REMARK    4  A    between atoms: N_9  and  CA_10
REMARK    5  A    between atoms: CA_10  and  CB_11
REMARK    6  A    between atoms: CA_10  and  C_16
REMARK    7  A    between atoms: CB_11  and  CG_12
REMARK    8  A    between atoms: CG_12  and  CD_13
REMARK                            x       y       z     vdW  Elec       q    Type
REMARK                         _______ _______ _______ _____ _____    ______ ____
ROOT
ATOM      7  C   ASP A   1      25.425  49.546   1.454  0.00  0.00    +0.000 C 
ATOM      8  O   ASP A   1      24.273  49.286   1.886  0.00  0.00    +0.000 OA
ATOM      9  N   GLU A   2      26.250  50.256   2.370  0.00  0.00    +0.000 NA
ENDROOT
BRANCH   7   2
ATOM      1  N   ASP A   1      25.136  47.247   1.112  0.00  0.00    +0.000 NA
ATOM      2  CA  ASP A   1      26.237  48.319   0.784  0.00  0.00    +0.000 C 
BRANCH   2   3
ATOM      3  CB  ASP A   1      25.608  48.592  -0.711  0.00  0.00    +0.000 C 
BRANCH   3   4
ATOM      4  CG  ASP A   1      26.648  48.316  -1.700  0.00  0.00    +0.000 C 
ATOM      5  OD1 ASP A   1      26.785  49.084  -2.701  0.00  0.00    +0.000 OA
ATOM      6  OD2 ASP A   1      26.852  46.961  -2.002  0.00  0.00    +0.000 OA
ENDBRANCH   3   4
ENDBRANCH   2   3
ENDBRANCH   7   2
BRANCH   9  10
ATOM     10  CA  GLU A   2      25.640  50.487   3.810  0.00  0.00    +0.000 C 
BRANCH  10  16
ATOM     16  C   GLU A   2      27.061  50.314   4.559  0.00  0.00    +0.000 C 
ATOM     17  O   GLU A   2      27.235  50.899   5.626  0.00  0.00    +0.000 OA
ATOM     18  OXT GLU A   2      28.126  50.404   3.654  0.00  0.00    +0.000 OA
ENDBRANCH  10  16
BRANCH  10  11
ATOM     11  CB  GLU A   2      25.757  52.119   3.670  0.00  0.00    +0.000 C 
BRANCH  11  12
ATOM     12  CG  GLU A   2      24.534  52.792   3.884  0.00  0.00    +0.000 C 
BRANCH  12  13
ATOM     13  CD  GLU A   2      23.982  53.104   5.181  0.00  0.00    +0.000 C 
ATOM     14  OE1 GLU A   2      23.557  54.296   5.316  0.00  0.00    +0.000 OA
ATOM     15  OE2 GLU A   2      23.147  52.158   5.792  0.00  0.00    +0.000 OA
ENDBRANCH  12  13
ENDBRANCH  11  12
ENDBRANCH  10  11
ENDBRANCH   9  10
TORSDOF 8
ENDMDL
MODEL 5
REMARK VINA RESULT:      -4.8      2.168      6.573
REMARK  Name = 
REMARK  8 active torsions:
REMARK  status: ('A' for Active; 'I' for Inactive)
REMARK    1  A    between atoms: CA_2  and  CB_3
REMARK    2  A    between atoms: CA_2  and  C_7
REMARK    3  A    between atoms: CB_3  and  CG_4
REMARK    4  A    between atoms: N_9  and  CA_10
REMARK    5  A    between atoms: CA_10  and  CB_11
REMARK    6  A    between atoms: CA_10  and  C_16
REMARK    7  A    between atoms: CB_11  and  CG_12
REMARK    8  A    between atoms: CG_12  and  CD_13
REMARK                            x       y       z     vdW  Elec       q    Type
REMARK                         _______ _______ _______ _____ _____    ______ ____
ROOT
ATOM      7  C   ASP A   1      24.281  57.296  -5.625  0.00  0.00    +0.000 C 
ATOM      8  O   ASP A   1      23.725  57.960  -6.536  0.00  0.00    +0.000 OA
ATOM      9  N   GLU A   2      25.666  57.571  -5.459  0.00  0.00    +0.000 NA
ENDROOT
BRANCH   7   2
ATOM      1  N   ASP A   1      22.843  58.665  -4.383  0.00  0.00    +0.000 NA
ATOM      2  CA  ASP A   1      23.529  57.264  -4.194  0.00  0.00    +0.000 C 
BRANCH   2   3
ATOM      3  CB  ASP A   1      22.215  56.477  -4.793  0.00  0.00    +0.000 C 
BRANCH   3   4
ATOM      4  CG  ASP A   1      22.575  55.074  -4.988  0.00  0.00    +0.000 C 
ATOM      5  OD1 ASP A   1      22.322  54.507  -6.096  0.00  0.00    +0.000 OA
ATOM      6  OD2 ASP A   1      22.384  54.240  -3.877  0.00  0.00    +0.000 OA
ENDBRANCH   3   4
ENDBRANCH   2   3
ENDBRANCH   7   2
BRANCH   9  10
ATOM     10  CA  GLU A   2      26.246  58.744  -6.347  0.00  0.00    +0.000 C 
BRANCH  10  16
ATOM     16  C   GLU A   2      26.717  59.621  -5.074  0.00  0.00    +0.000 C 
ATOM     17  O   GLU A   2      25.914  60.404  -4.573  0.00  0.00    +0.000 OA
ATOM     18  OXT GLU A   2      28.007  60.135  -5.260  0.00  0.00    +0.000 OA
ENDBRANCH  10  16
BRANCH  10  11
ATOM     11  CB  GLU A   2      27.689  57.981  -6.528  0.00  0.00    +0.000 C 
BRANCH  11  12
ATOM     12  CG  GLU A   2      27.636  56.876  -7.406  0.00  0.00    +0.000 C 
BRANCH  12  13
ATOM     13  CD  GLU A   2      27.899  56.939  -8.825  0.00  0.00    +0.000 C 
ATOM     14  OE1 GLU A   2      26.900  56.687  -9.572  0.00  0.00    +0.000 OA
ATOM     15  OE2 GLU A   2      28.684  57.995  -9.308  0.00  0.00    +0.000 OA
ENDBRANCH  12  13
ENDBRANCH  11  12
ENDBRANCH  10  11
ENDBRANCH   9  10
TORSDOF 8
ENDMDL
MODEL 6
REMARK VINA RESULT:      -4.7     20.089     22.778
REMARK  Name = 
REMARK  8 active torsions:
REMARK  status: ('A' for Active; 'I' for Inactive)
REMARK    1  A    between atoms: CA_2  and  CB_3
REMARK    2  A    between atoms: CA_2  and  C_7
REMARK    3  A    between atoms: CB_3  and  CG_4
REMARK    4  A    between atoms: N_9  and  CA_10
REMARK    5  A    between atoms: CA_10  and  CB_11
REMARK    6  A    between atoms: CA_10  and  C_16
REMARK    7  A    between atoms: CB_11  and  CG_12
REMARK    8  A    between atoms: CG_12  and  CD_13
REMARK                            x       y       z     vdW  Elec       q    Type
REMARK                         _______ _______ _______ _____ _____    ______ ____
ROOT
ATOM      7  C   ASP A   1      19.263  62.614  16.395  0.00  0.00    +0.000 C 
ATOM      8  O   ASP A   1      20.440  62.520  16.826  0.00  0.00    +0.000 OA
ATOM      9  N   GLU A   2      19.157  63.182  15.095  0.00  0.00    +0.000 NA
ENDROOT
BRANCH   7   2
ATOM      1  N   ASP A   1      19.558  60.299  16.584  0.00  0.00    +0.000 NA
ATOM      2  CA  ASP A   1      18.341  61.292  16.518  0.00  0.00    +0.000 C 
BRANCH   2   3
ATOM      3  CB  ASP A   1      18.256  61.386  18.158  0.00  0.00    +0.000 C 
BRANCH   3   4
ATOM      4  CG  ASP A   1      16.861  61.196  18.552  0.00  0.00    +0.000 C 
ATOM      5  OD1 ASP A   1      15.984  62.038  18.188  0.00  0.00    +0.000 OA
ATOM      6  OD2 ASP A   1      16.661  60.705  19.851  0.00  0.00    +0.000 OA
ENDBRANCH   3   4
ENDBRANCH   2   3
ENDBRANCH   7   2
BRANCH   9  10
ATOM     10  CA  GLU A   2      20.525  63.480  14.360  0.00  0.00    +0.000 C 
BRANCH  10  16
ATOM     16  C   GLU A   2      20.377  62.231  13.346  0.00  0.00    +0.000 C 
ATOM     17  O   GLU A   2      19.250  61.803  13.104  0.00  0.00    +0.000 OA
ATOM     18  OXT GLU A   2      21.339  61.247  13.608  0.00  0.00    +0.000 OA
ENDBRANCH  10  16
BRANCH  10  11
ATOM     11  CB  GLU A   2      19.820  64.562  13.346  0.00  0.00    +0.000 C 
BRANCH  11  12
ATOM     12  CG  GLU A   2      19.192  65.636  14.016  0.00  0.00    +0.000 C 
BRANCH  12  13
ATOM     13  CD  GLU A   2      18.686  66.824  13.371  0.00  0.00    +0.000 C 
ATOM     14  OE1 GLU A   2      18.725  66.808  12.099  0.00  0.00    +0.000 OA
ATOM     15  OE2 GLU A   2      17.509  67.400  13.869  0.00  0.00    +0.000 OA
ENDBRANCH  12  13
ENDBRANCH  11  12
ENDBRANCH  10  11
ENDBRANCH   9  10
TORSDOF 8
ENDMDL
MODEL 7
REMARK VINA RESULT:      -4.6     20.925     22.588
REMARK  Name = 
REMARK  8 active torsions:
REMARK  status: ('A' for Active; 'I' for Inactive)
REMARK    1  A    between atoms: CA_2  and  CB_3
REMARK    2  A    between atoms: CA_2  and  C_7
REMARK    3  A    between atoms: CB_3  and  CG_4
REMARK    4  A    between atoms: N_9  and  CA_10
REMARK    5  A    between atoms: CA_10  and  CB_11
REMARK    6  A    between atoms: CA_10  and  C_16
REMARK    7  A    between atoms: CB_11  and  CG_12
REMARK    8  A    between atoms: CG_12  and  CD_13
REMARK                            x       y       z     vdW  Elec       q    Type
REMARK                         _______ _______ _______ _____ _____    ______ ____
ROOT
ATOM      7  C   ASP A   1      20.604  68.789  12.227  0.00  0.00    +0.000 C 
ATOM      8  O   ASP A   1      20.858  67.644  11.775  0.00  0.00    +0.000 OA
ATOM      9  N   GLU A   2      19.235  69.163  12.145  0.00  0.00    +0.000 NA
ENDROOT
BRANCH   7   2
ATOM      1  N   ASP A   1      22.512  69.807  13.125  0.00  0.00    +0.000 NA
ATOM      2  CA  ASP A   1      21.205  69.138  13.687  0.00  0.00    +0.000 C 
BRANCH   2   3
ATOM      3  CB  ASP A   1      20.430  70.587  13.766  0.00  0.00    +0.000 C 
BRANCH   3   4
ATOM      4  CG  ASP A   1      20.269  70.940  15.176  0.00  0.00    +0.000 C 
ATOM      5  OD1 ASP A   1      21.078  71.755  15.717  0.00  0.00    +0.000 OA
ATOM      6  OD2 ASP A   1      19.883  69.890  16.022  0.00  0.00    +0.000 OA
ENDBRANCH   3   4
ENDBRANCH   2   3
ENDBRANCH   7   2
BRANCH   9  10
ATOM     10  CA  GLU A   2      18.246  68.044  11.625  0.00  0.00    +0.000 C 
BRANCH  10  16
ATOM     16  C   GLU A   2      17.321  68.093  12.948  0.00  0.00    +0.000 C 
ATOM     17  O   GLU A   2      17.738  67.560  13.974  0.00  0.00    +0.000 OA
ATOM     18  OXT GLU A   2      15.981  67.822  12.643  0.00  0.00    +0.000 OA
ENDBRANCH  10  16
BRANCH  10  11
ATOM     11  CB  GLU A   2      17.346  69.135  10.790  0.00  0.00    +0.000 C 
BRANCH  11  12
ATOM     12  CG  GLU A   2      18.023  70.350  10.539  0.00  0.00    +0.000 C 
BRANCH  12  13
ATOM     13  CD  GLU A   2      17.804  71.191   9.386  0.00  0.00    +0.000 C 
ATOM     14  OE1 GLU A   2      17.593  70.569   8.295  0.00  0.00    +0.000 OA
ATOM     15  OE2 GLU A   2      16.984  72.318   9.533  0.00  0.00    +0.000 OA
ENDBRANCH  12  13
ENDBRANCH  11  12
ENDBRANCH  10  11
ENDBRANCH   9  10
TORSDOF 8
ENDMDL
MODEL 8
REMARK VINA RESULT:      -4.6     19.665     22.637
REMARK  Name = 
REMARK  8 active torsions:
REMARK  status: ('A' for Active; 'I' for Inactive)
REMARK    1  A    between atoms: CA_2  and  CB_3
REMARK    2  A    between atoms: CA_2  and  C_7
REMARK    3  A    between atoms: CB_3  and  CG_4
REMARK    4  A    between atoms: N_9  and  CA_10
REMARK    5  A    between atoms: CA_10  and  CB_11
REMARK    6  A    between atoms: CA_10  and  C_16
REMARK    7  A    between atoms: CB_11  and  CG_12
REMARK    8  A    between atoms: CG_12  and  CD_13
REMARK                            x       y       z     vdW  Elec       q    Type
REMARK                         _______ _______ _______ _____ _____    ______ ____
ROOT
ATOM      7  C   ASP A   1      18.758  61.684  16.116  0.00  0.00    +0.000 C 
ATOM      8  O   ASP A   1      18.979  62.862  16.496  0.00  0.00    +0.000 OA
ATOM      9  N   GLU A   2      19.615  61.233  15.074  0.00  0.00    +0.000 NA
ENDROOT
BRANCH   7   2
ATOM      1  N   ASP A   1      20.123  60.694  17.740  0.00  0.00    +0.000 NA
ATOM      2  CA  ASP A   1      18.628  60.565  17.275  0.00  0.00    +0.000 C 
BRANCH   2   3
ATOM      3  CB  ASP A   1      18.124  61.651  18.402  0.00  0.00    +0.000 C 
BRANCH   3   4
ATOM      4  CG  ASP A   1      16.716  61.384  18.694  0.00  0.00    +0.000 C 
ATOM      5  OD1 ASP A   1      16.318  60.186  18.827  0.00  0.00    +0.000 OA
ATOM      6  OD2 ASP A   1      15.794  62.211  18.036  0.00  0.00    +0.000 OA
ENDBRANCH   3   4
ENDBRANCH   2   3
ENDBRANCH   7   2
BRANCH   9  10
ATOM     10  CA  GLU A   2      20.774  62.224  14.657  0.00  0.00    +0.000 C 
BRANCH  10  16
ATOM     16  C   GLU A   2      21.810  61.036  14.302  0.00  0.00    +0.000 C 
ATOM     17  O   GLU A   2      22.942  61.085  14.777  0.00  0.00    +0.000 OA
ATOM     18  OXT GLU A   2      21.752  60.701  12.943  0.00  0.00    +0.000 OA
ENDBRANCH  10  16
BRANCH  10  11
ATOM     11  CB  GLU A   2      20.195  62.361  13.126  0.00  0.00    +0.000 C 
BRANCH  11  12
ATOM     12  CG  GLU A   2      20.123  63.696  12.669  0.00  0.00    +0.000 C 
BRANCH  12  13
ATOM     13  CD  GLU A   2      19.907  64.845  13.516  0.00  0.00    +0.000 C 
ATOM     14  OE1 GLU A   2      20.512  65.905  13.153  0.00  0.00    +0.000 OA
ATOM     15  OE2 GLU A   2      18.608  65.095  13.979  0.00  0.00    +0.000 OA
ENDBRANCH  12  13
ENDBRANCH  11  12
ENDBRANCH  10  11
ENDBRANCH   9  10
TORSDOF 8
ENDMDL
MODEL 9
REMARK VINA RESULT:      -4.6     16.788     20.525
REMARK  Name = 
REMARK  8 active torsions:
REMARK  status: ('A' for Active; 'I' for Inactive)
REMARK    1  A    between atoms: CA_2  and  CB_3
REMARK    2  A    between atoms: CA_2  and  C_7
REMARK    3  A    between atoms: CB_3  and  CG_4
REMARK    4  A    between atoms: N_9  and  CA_10
REMARK    5  A    between atoms: CA_10  and  CB_11
REMARK    6  A    between atoms: CA_10  and  C_16
REMARK    7  A    between atoms: CB_11  and  CG_12
REMARK    8  A    between atoms: CG_12  and  CD_13
REMARK                            x       y       z     vdW  Elec       q    Type
REMARK                         _______ _______ _______ _____ _____    ______ ____
ROOT
ATOM      7  C   ASP A   1       8.353  59.406   7.196  0.00  0.00    +0.000 C 
ATOM      8  O   ASP A   1       8.693  60.142   8.156  0.00  0.00    +0.000 OA
ATOM      9  N   GLU A   2       9.151  58.240   7.039  0.00  0.00    +0.000 NA
ENDROOT
BRANCH   7   2
ATOM      1  N   ASP A   1       7.029  57.567   6.608  0.00  0.00    +0.000 NA
ATOM      2  CA  ASP A   1       6.781  59.044   7.086  0.00  0.00    +0.000 C 
BRANCH   2   3
ATOM      3  CB  ASP A   1       6.679  58.578   8.660  0.00  0.00    +0.000 C 
BRANCH   3   4
ATOM      4  CG  ASP A   1       5.473  59.173   9.233  0.00  0.00    +0.000 C 
ATOM      5  OD1 ASP A   1       4.331  58.766   8.857  0.00  0.00    +0.000 OA
ATOM      6  OD2 ASP A   1       5.529  60.556   9.457  0.00  0.00    +0.000 OA
ENDBRANCH   3   4
ENDBRANCH   2   3
ENDBRANCH   7   2
BRANCH   9  10
ATOM     10  CA  GLU A   2      10.239  57.994   8.159  0.00  0.00    +0.000 C 
BRANCH  10  16
ATOM     16  C   GLU A   2      10.091  56.386   8.103  0.00  0.00    +0.000 C 
ATOM     17  O   GLU A   2       9.939  55.849   7.007  0.00  0.00    +0.000 OA
ATOM     18  OXT GLU A   2       9.241  55.919   9.113  0.00  0.00    +0.000 OA
ENDBRANCH  10  16
BRANCH  10  11
ATOM     11  CB  GLU A   2      11.468  58.055   7.071  0.00  0.00    +0.000 C 
BRANCH  11  12
ATOM     12  CG  GLU A   2      12.039  59.340   6.938  0.00  0.00    +0.000 C 
BRANCH  12  13
ATOM     13  CD  GLU A   2      13.450  59.627   7.035  0.00  0.00    +0.000 C 
ATOM     14  OE1 GLU A   2      13.876  60.524   6.239  0.00  0.00    +0.000 OA
ATOM     15  OE2 GLU A   2      14.022  59.721   8.311  0.00  0.00    +0.000 OA
ENDBRANCH  12  13
ENDBRANCH  11  12
ENDBRANCH  10  11
ENDBRANCH   9  10
TORSDOF 8
ENDMDL
MODEL 10
REMARK VINA RESULT:      -4.6      2.163      2.365
REMARK  Name = 
REMARK  8 active torsions:
REMARK  status: ('A' for Active; 'I' for Inactive)
REMARK    1  A    between atoms: CA_2  and  CB_3
REMARK    2  A    between atoms: CA_2  and  C_7
REMARK    3  A    between atoms: CB_3  and  CG_4
REMARK    4  A    between atoms: N_9  and  CA_10
REMARK    5  A    between atoms: CA_10  and  CB_11
REMARK    6  A    between atoms: CA_10  and  C_16
REMARK    7  A    between atoms: CB_11  and  CG_12
REMARK    8  A    between atoms: CG_12  and  CD_13
REMARK                            x       y       z     vdW  Elec       q    Type
REMARK                         _______ _______ _______ _____ _____    ______ ____
ROOT
ATOM      7  C   ASP A   1      25.147  56.804  -6.293  0.00  0.00    +0.000 C 
ATOM      8  O   ASP A   1      24.264  57.425  -6.937  0.00  0.00    +0.000 OA
ATOM      9  N   GLU A   2      24.688  56.216  -5.082  0.00  0.00    +0.000 NA
ENDROOT
BRANCH   7   2
ATOM      1  N   ASP A   1      24.818  54.984  -7.728  0.00  0.00    +0.000 NA
ATOM      2  CA  ASP A   1      26.049  55.757  -7.131  0.00  0.00    +0.000 C 
BRANCH   2   3
ATOM      3  CB  ASP A   1      26.141  56.740  -8.447  0.00  0.00    +0.000 C 
BRANCH   3   4
ATOM      4  CG  ASP A   1      27.502  57.267  -8.527  0.00  0.00    +0.000 C 
ATOM      5  OD1 ASP A   1      27.712  58.502  -8.318  0.00  0.00    +0.000 OA
ATOM      6  OD2 ASP A   1      28.300  56.729  -9.547  0.00  0.00    +0.000 OA
ENDBRANCH   3   4
ENDBRANCH   2   3
ENDBRANCH   7   2
BRANCH   9  10
ATOM     10  CA  GLU A   2      23.134  56.325  -4.810  0.00  0.00    +0.000 C 
BRANCH  10  16
ATOM     16  C   GLU A   2      22.880  54.741  -4.996  0.00  0.00    +0.000 C 
ATOM     17  O   GLU A   2      22.228  54.363  -5.967  0.00  0.00    +0.000 OA
ATOM     18  OXT GLU A   2      22.536  54.135  -3.781  0.00  0.00    +0.000 OA
ENDBRANCH  10  16
BRANCH  10  11
ATOM     11  CB  GLU A   2      23.347  56.238  -3.184  0.00  0.00    +0.000 C 
BRANCH  11  12
ATOM     12  CG  GLU A   2      24.453  56.984  -2.719  0.00  0.00    +0.000 C 
BRANCH  12  13
ATOM     13  CD  GLU A   2      25.132  56.755  -1.466  0.00  0.00    +0.000 C 
ATOM     14  OE1 GLU A   2      25.673  57.784  -0.948  0.00  0.00    +0.000 OA
ATOM     15  OE2 GLU A   2      24.511  55.934  -0.515  0.00  0.00    +0.000 OA
ENDBRANCH  12  13
ENDBRANCH  11  12
ENDBRANCH  10  11
ENDBRANCH   9  10
TORSDOF 8
ENDMDL
