MODEL 1
REMARK VINA RESULT:      -4.8      0.000      0.000
REMARK  Name = 
REMARK  7 active torsions:
REMARK  status: ('A' for Active; 'I' for Inactive)
REMARK    1  A    between atoms: CG_2  and  CB_4
REMARK    2  A    between atoms: CB_4  and  CA_5
REMARK    3  A    between atoms: CA_5  and  N_6
REMARK    4  A    between atoms: CA_5  and  C_15
REMARK    5  A    between atoms: C_7  and  CA_9
REMARK    6  A    between atoms: CA_9  and  CB_11
REMARK    7  A    between atoms: CB_11  and  CG_12
REMARK                            x       y       z     vdW  Elec       q    Type
REMARK                         _______ _______ _______ _____ _____    ______ ____
ROOT
ATOM      6  N   LEU A   2       9.571  57.393   7.269  0.00  0.00    +0.000 NA
ATOM      7  C   ASP A   1       9.085  58.687   6.857  0.00  0.00    +0.000 C 
ATOM      8  O   ASP A   1       8.522  58.672   5.777  0.00  0.00    +0.000 OA
ENDROOT
BRANCH   7   9
ATOM      9  CA  ASP A   1       8.318  59.383   8.130  0.00  0.00    +0.000 C 
ATOM     10  N   ASP A   1       8.642  58.186   9.154  0.00  0.00    +0.000 NA
BRANCH   9  11
ATOM     11  CB  ASP A   1       6.869  58.657   7.699  0.00  0.00    +0.000 C 
BRANCH  11  12
ATOM     12  CG  ASP A   1       5.857  59.388   8.527  0.00  0.00    +0.000 C 
ATOM     13  OD1 ASP A   1       6.104  60.575   8.898  0.00  0.00    +0.000 OA
ATOM     14  OD2 ASP A   1       5.191  58.588   9.458  0.00  0.00    +0.000 OA
ENDBRANCH  11  12
ENDBRANCH   9  11
ENDBRANCH   7   9
BRANCH   6   5
ATOM      5  CA  LEU A   2      10.897  57.206   6.382  0.00  0.00    +0.000 C 
BRANCH   5  15
ATOM     15  C   LEU A   2      11.246  55.769   7.091  0.00  0.00    +0.000 C 
ATOM     16  O   LEU A   2      11.342  54.827   6.285  0.00  0.00    +0.000 OA
ATOM     17  OXT LEU A   2      11.568  55.790   8.402  0.00  0.00    +0.000 OA
ENDBRANCH   5  15
BRANCH   5   4
ATOM      4  CB  LEU A   2      11.821  58.066   7.484  0.00  0.00    +0.000 C 
BRANCH   4   2
ATOM      1  CD1 LEU A   2      12.629  58.683   5.211  0.00  0.00    +0.000 C 
ATOM      2  CG  LEU A   2      12.910  58.685   6.656  0.00  0.00    +0.000 C 
ATOM      3  CD2 LEU A   2      13.270  60.045   7.168  0.00  0.00    +0.000 C 
ENDBRANCH   4   2
ENDBRANCH   5   4
ENDBRANCH   6   5
TORSDOF 7
ENDMDL
MODEL 2
REMARK VINA RESULT:      -4.7     17.985     21.142
REMARK  Name = 
REMARK  7 active torsions:
REMARK  status: ('A' for Active; 'I' for Inactive)
REMARK    1  A    between atoms: CG_2  and  CB_4
REMARK    2  A    between atoms: CB_4  and  CA_5
REMARK    3  A    between atoms: CA_5  and  N_6
REMARK    4  A    between atoms: CA_5  and  C_15
REMARK    5  A    between atoms: C_7  and  CA_9
REMARK    6  A    between atoms: CA_9  and  CB_11
REMARK    7  A    between atoms: CB_11  and  CG_12
REMARK                            x       y       z     vdW  Elec       q    Type
REMARK                         _______ _______ _______ _____ _____    ______ ____
ROOT
ATOM      6  N   LEU A   2      24.234  55.935  -6.139  0.00  0.00    +0.000 NA
ATOM      7  C   ASP A   1      25.631  56.289  -6.170  0.00  0.00    +0.000 C 
ATOM      8  O   ASP A   1      26.373  55.357  -5.924  0.00  0.00    +0.000 OA
ENDROOT
BRANCH   7   9
ATOM      9  CA  ASP A   1      25.911  57.178  -7.521  0.00  0.00    +0.000 C 
ATOM     10  N   ASP A   1      25.152  56.163  -8.511  0.00  0.00    +0.000 NA
BRANCH   9  11
ATOM     11  CB  ASP A   1      27.366  56.387  -7.782  0.00  0.00    +0.000 C 
BRANCH  11  12
ATOM     12  CG  ASP A   1      28.138  57.353  -8.627  0.00  0.00    +0.000 C 
ATOM     13  OD1 ASP A   1      28.046  58.594  -8.386  0.00  0.00    +0.000 OA
ATOM     14  OD2 ASP A   1      28.216  57.001  -9.976  0.00  0.00    +0.000 OA
ENDBRANCH  11  12
ENDBRANCH   9  11
ENDBRANCH   7   9
BRANCH   6   5
ATOM      5  CA  LEU A   2      23.913  55.865  -4.566  0.00  0.00    +0.000 C 
BRANCH   5  15
ATOM     15  C   LEU A   2      22.845  54.638  -4.773  0.00  0.00    +0.000 C 
ATOM     16  O   LEU A   2      22.482  54.110  -3.707  0.00  0.00    +0.000 OA
ATOM     17  OXT LEU A   2      22.345  54.457  -6.014  0.00  0.00    +0.000 OA
ENDBRANCH   5  15
BRANCH   5   4
ATOM      4  CB  LEU A   2      22.719  57.033  -4.703  0.00  0.00    +0.000 C 
BRANCH   4   2
ATOM      1  CD1 LEU A   2      22.454  57.375  -2.251  0.00  0.00    +0.000 C 
ATOM      2  CG  LEU A   2      22.941  57.934  -3.522  0.00  0.00    +0.000 C 
ATOM      3  CD2 LEU A   2      24.368  58.380  -3.444  0.00  0.00    +0.000 C 
ENDBRANCH   4   2
ENDBRANCH   5   4
ENDBRANCH   6   5
TORSDOF 7
ENDMDL
MODEL 3
REMARK VINA RESULT:      -4.7     13.358     15.386
REMARK  Name = 
REMARK  7 active torsions:
REMARK  status: ('A' for Active; 'I' for Inactive)
REMARK    1  A    between atoms: CG_2  and  CB_4
REMARK    2  A    between atoms: CB_4  and  CA_5
REMARK    3  A    between atoms: CA_5  and  N_6
REMARK    4  A    between atoms: CA_5  and  C_15
REMARK    5  A    between atoms: C_7  and  CA_9
REMARK    6  A    between atoms: CA_9  and  CB_11
REMARK    7  A    between atoms: CB_11  and  CG_12
REMARK                            x       y       z     vdW  Elec       q    Type
REMARK                         _______ _______ _______ _____ _____    ______ ____
ROOT
ATOM      6  N   LEU A   2      18.144  62.549  17.689  0.00  0.00    +0.000 NA
ATOM      7  C   ASP A   1      18.964  62.452  16.507  0.00  0.00    +0.000 C 
ATOM      8  O   ASP A   1      18.383  61.968  15.552  0.00  0.00    +0.000 OA
ENDROOT
BRANCH   7   9
ATOM      9  CA  ASP A   1      19.752  63.876  16.303  0.00  0.00    +0.000 C 
ATOM     10  N   ASP A   1      19.016  64.243  14.922  0.00  0.00    +0.000 NA
BRANCH   9  11
ATOM     11  CB  ASP A   1      20.991  63.113  15.471  0.00  0.00    +0.000 C 
BRANCH  11  12
ATOM     12  CG  ASP A   1      21.721  62.367  16.546  0.00  0.00    +0.000 C 
ATOM     13  OD1 ASP A   1      22.444  63.012  17.363  0.00  0.00    +0.000 OA
ATOM     14  OD2 ASP A   1      22.218  61.124  16.146  0.00  0.00    +0.000 OA
ENDBRANCH  11  12
ENDBRANCH   9  11
ENDBRANCH   7   9
BRANCH   6   5
ATOM      5  CA  LEU A   2      18.125  61.040  18.241  0.00  0.00    +0.000 C 
BRANCH   5  15
ATOM     15  C   LEU A   2      16.486  61.009  18.285  0.00  0.00    +0.000 C 
ATOM     16  O   LEU A   2      16.021  59.934  18.703  0.00  0.00    +0.000 OA
ATOM     17  OXT LEU A   2      15.840  62.171  18.052  0.00  0.00    +0.000 OA
ENDBRANCH   5  15
BRANCH   5   4
ATOM      4  CB  LEU A   2      18.237  61.562  19.829  0.00  0.00    +0.000 C 
BRANCH   4   2
ATOM      1  CD1 LEU A   2      19.880  62.874  21.161  0.00  0.00    +0.000 C 
ATOM      2  CG  LEU A   2      19.650  62.051  19.963  0.00  0.00    +0.000 C 
ATOM      3  CD2 LEU A   2      20.626  60.921  19.847  0.00  0.00    +0.000 C 
ENDBRANCH   4   2
ENDBRANCH   5   4
ENDBRANCH   6   5
TORSDOF 7
ENDMDL
MODEL 4
REMARK VINA RESULT:      -4.7     22.270     24.321
REMARK  Name = 
REMARK  7 active torsions:
REMARK  status: ('A' for Active; 'I' for Inactive)
REMARK    1  A    between atoms: CG_2  and  CB_4
REMARK    2  A    between atoms: CB_4  and  CA_5
REMARK    3  A    between atoms: CA_5  and  N_6
REMARK    4  A    between atoms: CA_5  and  C_15
REMARK    5  A    between atoms: C_7  and  CA_9
REMARK    6  A    between atoms: CA_9  and  CB_11
REMARK    7  A    between atoms: CB_11  and  CG_12
REMARK                            x       y       z     vdW  Elec       q    Type
REMARK                         _______ _______ _______ _____ _____    ______ ____
ROOT
ATOM      6  N   LEU A   2      16.187  61.310 -16.463  0.00  0.00    +0.000 NA
ATOM      7  C   ASP A   1      15.907  61.341 -15.049  0.00  0.00    +0.000 C 
ATOM      8  O   ASP A   1      16.896  61.523 -14.363  0.00  0.00    +0.000 OA
ENDROOT
BRANCH   7   9
ATOM      9  CA  ASP A   1      14.595  62.295 -14.800  0.00  0.00    +0.000 C 
ATOM     10  N   ASP A   1      15.333  63.657 -15.233  0.00  0.00    +0.000 NA
BRANCH   9  11
ATOM     11  CB  ASP A   1      15.029  62.537 -13.199  0.00  0.00    +0.000 C 
BRANCH  11  12
ATOM     12  CG  ASP A   1      14.122  61.609 -12.451  0.00  0.00    +0.000 C 
ATOM     13  OD1 ASP A   1      14.624  60.642 -11.805  0.00  0.00    +0.000 OA
ATOM     14  OD2 ASP A   1      12.913  61.342 -13.099  0.00  0.00    +0.000 OA
ENDBRANCH  11  12
ENDBRANCH   9  11
ENDBRANCH   7   9
BRANCH   6   5
ATOM      5  CA  LEU A   2      16.819  59.848 -16.674  0.00  0.00    +0.000 C 
BRANCH   5  15
ATOM     15  C   LEU A   2      17.969  60.423 -17.692  0.00  0.00    +0.000 C 
ATOM     16  O   LEU A   2      17.752  60.156 -18.888  0.00  0.00    +0.000 OA
ATOM     17  OXT LEU A   2      18.896  61.254 -17.171  0.00  0.00    +0.000 OA
ENDBRANCH   5  15
BRANCH   5   4
ATOM      4  CB  LEU A   2      15.762  59.513 -17.930  0.00  0.00    +0.000 C 
BRANCH   4   2
ATOM      1  CD1 LEU A   2      16.285  57.079 -17.950  0.00  0.00    +0.000 C 
ATOM      2  CG  LEU A   2      15.284  58.117 -17.653  0.00  0.00    +0.000 C 
ATOM      3  CD2 LEU A   2      14.729  58.000 -16.268  0.00  0.00    +0.000 C 
ENDBRANCH   4   2
ENDBRANCH   5   4
ENDBRANCH   6   5
TORSDOF 7
ENDMDL
MODEL 5
REMARK VINA RESULT:      -4.6     12.839     14.199
REMARK  Name = 
REMARK  7 active torsions:
REMARK  status: ('A' for Active; 'I' for Inactive)
REMARK    1  A    between atoms: CG_2  and  CB_4
REMARK    2  A    between atoms: CB_4  and  CA_5
REMARK    3  A    between atoms: CA_5  and  N_6
REMARK    4  A    between atoms: CA_5  and  C_15
REMARK    5  A    between atoms: C_7  and  CA_9
REMARK    6  A    between atoms: CA_9  and  CB_11
REMARK    7  A    between atoms: CB_11  and  CG_12
REMARK                            x       y       z     vdW  Elec       q    Type
REMARK                         _______ _______ _______ _____ _____    ______ ____
ROOT
ATOM      6  N   LEU A   2      18.855  63.881  15.071  0.00  0.00    +0.000 NA
ATOM      7  C   ASP A   1      19.566  63.513  16.270  0.00  0.00    +0.000 C 
ATOM      8  O   ASP A   1      19.553  64.378  17.127  0.00  0.00    +0.000 OA
ENDROOT
BRANCH   7   9
ATOM      9  CA  ASP A   1      19.124  61.989  16.689  0.00  0.00    +0.000 C 
ATOM     10  N   ASP A   1      17.659  62.088  16.034  0.00  0.00    +0.000 NA
BRANCH   9  11
ATOM     11  CB  ASP A   1      18.531  62.528  18.161  0.00  0.00    +0.000 C 
BRANCH  11  12
ATOM     12  CG  ASP A   1      18.764  61.364  19.075  0.00  0.00    +0.000 C 
ATOM     13  OD1 ASP A   1      19.576  60.457  18.724  0.00  0.00    +0.000 OA
ATOM     14  OD2 ASP A   1      17.623  60.927  19.751  0.00  0.00    +0.000 OA
ENDBRANCH  11  12
ENDBRANCH   9  11
ENDBRANCH   7   9
BRANCH   6   5
ATOM      5  CA  LEU A   2      19.879  64.875  14.334  0.00  0.00    +0.000 C 
BRANCH   5  15
ATOM     15  C   LEU A   2      18.702  65.983  14.053  0.00  0.00    +0.000 C 
ATOM     16  O   LEU A   2      17.981  65.705  13.078  0.00  0.00    +0.000 OA
ATOM     17  OXT LEU A   2      18.524  66.944  14.983  0.00  0.00    +0.000 OA
ENDBRANCH   5  15
BRANCH   5   4
ATOM      4  CB  LEU A   2      19.633  64.122  12.858  0.00  0.00    +0.000 C 
BRANCH   4   2
ATOM      1  CD1 LEU A   2      20.305  61.725  12.861  0.00  0.00    +0.000 C 
ATOM      2  CG  LEU A   2      20.750  63.124  12.756  0.00  0.00    +0.000 C 
ATOM      3  CD2 LEU A   2      21.586  63.371  11.539  0.00  0.00    +0.000 C 
ENDBRANCH   4   2
ENDBRANCH   5   4
ENDBRANCH   6   5
TORSDOF 7
ENDMDL
MODEL 6
REMARK VINA RESULT:      -4.6     18.303     21.364
REMARK  Name = 
REMARK  7 active torsions:
REMARK  status: ('A' for Active; 'I' for Inactive)
REMARK    1  A    between atoms: CG_2  and  CB_4
REMARK    2  A    between atoms: CB_4  and  CA_5
REMARK    3  A    between atoms: CA_5  and  N_6
REMARK    4  A    between atoms: CA_5  and  C_15
REMARK    5  A    between atoms: C_7  and  CA_9
REMARK    6  A    between atoms: CA_9  and  CB_11
REMARK    7  A    between atoms: CB_11  and  CG_12
REMARK                            x       y       z     vdW  Elec       q    Type
REMARK                         _______ _______ _______ _____ _____    ______ ____
ROOT
ATOM      6  N   LEU A   2      23.937  56.710  -6.311  0.00  0.00    +0.000 NA
ATOM      7  C   ASP A   1      24.833  55.666  -5.879  0.00  0.00    +0.000 C 
ATOM      8  O   ASP A   1      24.373  54.968  -4.995  0.00  0.00    +0.000 OA
ENDROOT
BRANCH   7   9
ATOM      9  CA  ASP A   1      25.456  54.934  -7.209  0.00  0.00    +0.000 C 
ATOM     10  N   ASP A   1      26.185  53.758  -6.389  0.00  0.00    +0.000 NA
BRANCH   9  11
ATOM     11  CB  ASP A   1      26.836  55.882  -7.129  0.00  0.00    +0.000 C 
BRANCH  11  12
ATOM     12  CG  ASP A   1      26.886  56.536  -8.476  0.00  0.00    +0.000 C 
ATOM     13  OD1 ASP A   1      25.852  56.516  -9.210  0.00  0.00    +0.000 OA
ATOM     14  OD2 ASP A   1      28.105  56.388  -9.141  0.00  0.00    +0.000 OA
ENDBRANCH  11  12
ENDBRANCH   9  11
ENDBRANCH   7   9
BRANCH   6   5
ATOM      5  CA  LEU A   2      24.066  57.803  -5.141  0.00  0.00    +0.000 C 
BRANCH   5  15
ATOM     15  C   LEU A   2      22.468  58.167  -5.218  0.00  0.00    +0.000 C 
ATOM     16  O   LEU A   2      21.793  57.313  -5.821  0.00  0.00    +0.000 OA
ATOM     17  OXT LEU A   2      22.038  59.216  -4.486  0.00  0.00    +0.000 OA
ENDBRANCH   5  15
BRANCH   5   4
ATOM      4  CB  LEU A   2      24.474  59.006  -6.234  0.00  0.00    +0.000 C 
BRANCH   4   2
ATOM      1  CD1 LEU A   2      26.616  59.921  -7.111  0.00  0.00    +0.000 C 
ATOM      2  CG  LEU A   2      25.935  59.251  -5.991  0.00  0.00    +0.000 C 
ATOM      3  CD2 LEU A   2      26.156  59.949  -4.685  0.00  0.00    +0.000 C 
ENDBRANCH   4   2
ENDBRANCH   5   4
ENDBRANCH   6   5
TORSDOF 7
ENDMDL
MODEL 7
REMARK VINA RESULT:      -4.5      2.068      5.523
REMARK  Name = 
REMARK  7 active torsions:
REMARK  status: ('A' for Active; 'I' for Inactive)
REMARK    1  A    between atoms: CG_2  and  CB_4
REMARK    2  A    between atoms: CB_4  and  CA_5
REMARK    3  A    between atoms: CA_5  and  N_6
REMARK    4  A    between atoms: CA_5  and  C_15
REMARK    5  A    between atoms: C_7  and  CA_9
REMARK    6  A    between atoms: CA_9  and  CB_11
REMARK    7  A    between atoms: CB_11  and  CG_12
REMARK                            x       y       z     vdW  Elec       q    Type
REMARK                         _______ _______ _______ _____ _____    ______ ____
ROOT
ATOM      6  N   LEU A   2       9.829  58.962   7.457  0.00  0.00    +0.000 NA
ATOM      7  C   ASP A   1      10.560  58.256   6.435  0.00  0.00    +0.000 C 
ATOM      8  O   ASP A   1      10.696  58.895   5.407  0.00  0.00    +0.000 OA
ENDROOT
BRANCH   7   9
ATOM      9  CA  ASP A   1      11.891  57.584   7.119  0.00  0.00    +0.000 C 
ATOM     10  N   ASP A   1      12.625  57.280   5.721  0.00  0.00    +0.000 NA
BRANCH   9  11
ATOM     11  CB  ASP A   1      11.177  56.067   7.104  0.00  0.00    +0.000 C 
BRANCH  11  12
ATOM     12  CG  ASP A   1      11.025  55.742   8.559  0.00  0.00    +0.000 C 
ATOM     13  OD1 ASP A   1       9.910  55.951   9.124  0.00  0.00    +0.000 OA
ATOM     14  OD2 ASP A   1      12.156  56.017   9.330  0.00  0.00    +0.000 OA
ENDBRANCH  11  12
ENDBRANCH   9  11
ENDBRANCH   7   9
BRANCH   6   5
ATOM      5  CA  LEU A   2       8.304  58.831   6.967  0.00  0.00    +0.000 C 
BRANCH   5  15
ATOM     15  C   LEU A   2       8.081  60.455   7.017  0.00  0.00    +0.000 C 
ATOM     16  O   LEU A   2       8.342  60.958   8.125  0.00  0.00    +0.000 OA
ATOM     17  OXT LEU A   2       7.831  61.080   5.848  0.00  0.00    +0.000 OA
ENDBRANCH   5  15
BRANCH   5   4
ATOM      4  CB  LEU A   2       7.759  58.627   8.538  0.00  0.00    +0.000 C 
BRANCH   4   2
ATOM      1  CD1 LEU A   2       6.946  56.568   7.400  0.00  0.00    +0.000 C 
ATOM      2  CG  LEU A   2       6.682  57.588   8.428  0.00  0.00    +0.000 C 
ATOM      3  CD2 LEU A   2       6.371  56.988   9.765  0.00  0.00    +0.000 C 
ENDBRANCH   4   2
ENDBRANCH   5   4
ENDBRANCH   6   5
TORSDOF 7
ENDMDL
MODEL 8
REMARK VINA RESULT:      -4.4     23.455     25.504
REMARK  Name = 
REMARK  7 active torsions:
REMARK  status: ('A' for Active; 'I' for Inactive)
REMARK    1  A    between atoms: CG_2  and  CB_4
REMARK    2  A    between atoms: CB_4  and  CA_5
REMARK    3  A    between atoms: CA_5  and  N_6
REMARK    4  A    between atoms: CA_5  and  C_15
REMARK    5  A    between atoms: C_7  and  CA_9
REMARK    6  A    between atoms: CA_9  and  CB_11
REMARK    7  A    between atoms: CB_11  and  CG_12
REMARK                            x       y       z     vdW  Elec       q    Type
REMARK                         _______ _______ _______ _____ _____    ______ ____
ROOT
ATOM      6  N   LEU A   2      16.247  59.514 -16.619  0.00  0.00    +0.000 NA
ATOM      7  C   ASP A   1      14.898  59.119 -16.298  0.00  0.00    +0.000 C 
ATOM      8  O   ASP A   1      14.792  57.939 -16.018  0.00  0.00    +0.000 OA
ENDROOT
BRANCH   7   9
ATOM      9  CA  ASP A   1      14.264  60.228 -15.268  0.00  0.00    +0.000 C 
ATOM     10  N   ASP A   1      13.819  61.251 -16.426  0.00  0.00    +0.000 NA
BRANCH   9  11
ATOM     11  CB  ASP A   1      15.747  60.995 -15.124  0.00  0.00    +0.000 C 
BRANCH  11  12
ATOM     12  CG  ASP A   1      15.528  61.965 -14.004  0.00  0.00    +0.000 C 
ATOM     13  OD1 ASP A   1      15.930  63.160 -14.134  0.00  0.00    +0.000 OA
ATOM     14  OD2 ASP A   1      15.673  61.413 -12.729  0.00  0.00    +0.000 OA
ENDBRANCH  11  12
ENDBRANCH   9  11
ENDBRANCH   7   9
BRANCH   6   5
ATOM      5  CA  LEU A   2      16.439  58.960 -18.115  0.00  0.00    +0.000 C 
BRANCH   5  15
ATOM     15  C   LEU A   2      18.056  58.780 -17.909  0.00  0.00    +0.000 C 
ATOM     16  O   LEU A   2      18.557  57.908 -18.642  0.00  0.00    +0.000 OA
ATOM     17  OXT LEU A   2      18.685  59.689 -17.134  0.00  0.00    +0.000 OA
ENDBRANCH   5  15
BRANCH   5   4
ATOM      4  CB  LEU A   2      16.609  60.511 -18.725  0.00  0.00    +0.000 C 
BRANCH   4   2
ATOM      1  CD1 LEU A   2      15.014  61.786 -20.148  0.00  0.00    +0.000 C 
ATOM      2  CG  LEU A   2      15.747  60.525 -19.954  0.00  0.00    +0.000 C 
ATOM      3  CD2 LEU A   2      16.529  60.123 -21.167  0.00  0.00    +0.000 C 
ENDBRANCH   4   2
ENDBRANCH   5   4
ENDBRANCH   6   5
TORSDOF 7
ENDMDL
MODEL 9
REMARK VINA RESULT:      -4.4     37.377     39.234
REMARK  Name = 
REMARK  7 active torsions:
REMARK  status: ('A' for Active; 'I' for Inactive)
REMARK    1  A    between atoms: CG_2  and  CB_4
REMARK    2  A    between atoms: CB_4  and  CA_5
REMARK    3  A    between atoms: CA_5  and  N_6
REMARK    4  A    between atoms: CA_5  and  C_15
REMARK    5  A    between atoms: C_7  and  CA_9
REMARK    6  A    between atoms: CA_9  and  CB_11
REMARK    7  A    between atoms: CB_11  and  CG_12
REMARK                            x       y       z     vdW  Elec       q    Type
REMARK                         _______ _______ _______ _____ _____    ______ ____
ROOT
ATOM      6  N   LEU A   2      10.085  22.750  25.074  0.00  0.00    +0.000 NA
ATOM      7  C   ASP A   1       9.300  23.711  25.808  0.00  0.00    +0.000 C 
ATOM      8  O   ASP A   1       8.894  23.291  26.876  0.00  0.00    +0.000 OA
ENDROOT
BRANCH   7   9
ATOM      9  CA  ASP A   1      10.085  25.152  25.781  0.00  0.00    +0.000 C 
ATOM     10  N   ASP A   1      11.277  24.639  24.831  0.00  0.00    +0.000 NA
BRANCH   9  11
ATOM     11  CB  ASP A   1      10.962  24.739  27.149  0.00  0.00    +0.000 C 
BRANCH  11  12
ATOM     12  CG  ASP A   1      12.050  25.769  27.186  0.00  0.00    +0.000 C 
ATOM     13  OD1 ASP A   1      13.129  25.505  27.795  0.00  0.00    +0.000 OA
ATOM     14  OD2 ASP A   1      11.592  27.084  27.308  0.00  0.00    +0.000 OA
ENDBRANCH  11  12
ENDBRANCH   9  11
ENDBRANCH   7   9
BRANCH   6   5
ATOM      5  CA  LEU A   2       8.972  21.765  24.464  0.00  0.00    +0.000 C 
BRANCH   5  15
ATOM     15  C   LEU A   2      10.107  20.704  23.940  0.00  0.00    +0.000 C 
ATOM     16  O   LEU A   2      10.500  19.920  24.823  0.00  0.00    +0.000 OA
ATOM     17  OXT LEU A   2      10.351  20.666  22.613  0.00  0.00    +0.000 OA
ENDBRANCH   5  15
BRANCH   5   4
ATOM      4  CB  LEU A   2       8.959  22.594  23.008  0.00  0.00    +0.000 C 
BRANCH   4   2
ATOM      1  CD1 LEU A   2       6.602  22.063  23.606  0.00  0.00    +0.000 C 
ATOM      2  CG  LEU A   2       7.503  22.809  22.713  0.00  0.00    +0.000 C 
ATOM      3  CD2 LEU A   2       7.174  24.269  22.654  0.00  0.00    +0.000 C 
ENDBRANCH   4   2
ENDBRANCH   5   4
ENDBRANCH   6   5
TORSDOF 7
ENDMDL
MODEL 10
REMARK VINA RESULT:      -4.4     13.575     15.484
REMARK  Name = 
REMARK  7 active torsions:
REMARK  status: ('A' for Active; 'I' for Inactive)
REMARK    1  A    between atoms: CG_2  and  CB_4
REMARK    2  A    between atoms: CB_4  and  CA_5
REMARK    3  A    between atoms: CA_5  and  N_6
REMARK    4  A    between atoms: CA_5  and  C_15
REMARK    5  A    between atoms: C_7  and  CA_9
REMARK    6  A    between atoms: CA_9  and  CB_11
REMARK    7  A    between atoms: CB_11  and  CG_12
REMARK                            x       y       z     vdW  Elec       q    Type
REMARK                         _______ _______ _______ _____ _____    ______ ____
ROOT
ATOM      6  N   LEU A   2      18.154  62.281  17.157  0.00  0.00    +0.000 NA
ATOM      7  C   ASP A   1      19.543  62.486  16.830  0.00  0.00    +0.000 C 
ATOM      8  O   ASP A   1      19.981  61.669  16.041  0.00  0.00    +0.000 OA
ENDROOT
BRANCH   7   9
ATOM      9  CA  ASP A   1      19.773  64.080  16.513  0.00  0.00    +0.000 C 
ATOM     10  N   ASP A   1      18.952  64.063  15.130  0.00  0.00    +0.000 NA
BRANCH   9  11
ATOM     11  CB  ASP A   1      21.201  63.749  15.700  0.00  0.00    +0.000 C 
BRANCH  11  12
ATOM     12  CG  ASP A   1      21.430  64.986  14.886  0.00  0.00    +0.000 C 
ATOM     13  OD1 ASP A   1      22.040  64.892  13.779  0.00  0.00    +0.000 OA
ATOM     14  OD2 ASP A   1      21.717  66.126  15.641  0.00  0.00    +0.000 OA
ENDBRANCH  11  12
ENDBRANCH   9  11
ENDBRANCH   7   9
BRANCH   6   5
ATOM      5  CA  LEU A   2      18.204  61.051  18.189  0.00  0.00    +0.000 C 
BRANCH   5  15
ATOM     15  C   LEU A   2      16.576  61.068  18.387  0.00  0.00    +0.000 C 
ATOM     16  O   LEU A   2      16.046  62.143  18.051  0.00  0.00    +0.000 OA
ATOM     17  OXT LEU A   2      15.980  59.899  18.702  0.00  0.00    +0.000 OA
ENDBRANCH   5  15
BRANCH   5   4
ATOM      4  CB  LEU A   2      18.453  62.079  19.488  0.00  0.00    +0.000 C 
BRANCH   4   2
ATOM      1  CD1 LEU A   2      20.455  60.985  20.483  0.00  0.00    +0.000 C 
ATOM      2  CG  LEU A   2      19.000  61.192  20.568  0.00  0.00    +0.000 C 
ATOM      3  CD2 LEU A   2      18.565  61.659  21.923  0.00  0.00    +0.000 C 
ENDBRANCH   4   2
ENDBRANCH   5   4
ENDBRANCH   6   5
TORSDOF 7
ENDMDL
