MODEL 1
REMARK VINA RESULT:      -5.2      0.000      0.000
REMARK  Name = 
REMARK  8 active torsions:
REMARK  status: ('A' for Active; 'I' for Inactive)
REMARK    1  A    between atoms: CA_2  and  CB_3
REMARK    2  A    between atoms: CA_2  and  C_7
REMARK    3  A    between atoms: CB_3  and  CG_4
REMARK    4  A    between atoms: N_9  and  CA_10
REMARK    5  A    between atoms: CA_10  and  CB_11
REMARK    6  A    between atoms: CA_10  and  C_16
REMARK    7  A    between atoms: CB_11  and  CG_12
REMARK    8  A    between atoms: CG_12  and  CD_13
REMARK                            x       y       z     vdW  Elec       q    Type
REMARK                         _______ _______ _______ _____ _____    ______ ____
ROOT
ATOM      7  C   ASP A   1      19.066  61.325  21.354  0.00  0.00    +0.000 C 
ATOM      8  O   ASP A   1      18.868  62.536  21.696  0.00  0.00    +0.000 OA
ATOM      9  N   GLU A   2      18.443  60.840  20.171  0.00  0.00    +0.000 NA
ENDROOT
BRANCH   7   2
ATOM      1  N   ASP A   1      18.787  61.773  23.619  0.00  0.00    +0.000 NA
ATOM      2  CA  ASP A   1      18.764  60.491  22.705  0.00  0.00    +0.000 C 
BRANCH   2   3
ATOM      3  CB  ASP A   1      17.136  60.583  22.485  0.00  0.00    +0.000 C 
BRANCH   3   4
ATOM      4  CG  ASP A   1      16.555  59.370  23.081  0.00  0.00    +0.000 C 
ATOM      5  OD1 ASP A   1      15.960  59.447  24.194  0.00  0.00    +0.000 OA
ATOM      6  OD2 ASP A   1      16.046  58.434  22.170  0.00  0.00    +0.000 OA
ENDBRANCH   3   4
ENDBRANCH   2   3
ENDBRANCH   7   2
BRANCH   9  10
ATOM     10  CA  GLU A   2      18.048  62.069  19.253  0.00  0.00    +0.000 C 
BRANCH  10  16
ATOM     16  C   GLU A   2      16.805  61.320  18.559  0.00  0.00    +0.000 C 
ATOM     17  O   GLU A   2      16.436  60.241  18.934  0.00  0.00    +0.000 OA
ATOM     18  OXT GLU A   2      15.899  62.215  17.987  0.00  0.00    +0.000 OA
ENDBRANCH  10  16
BRANCH  10  11
ATOM     11  CB  GLU A   2      19.144  61.634  18.109  0.00  0.00    +0.000 C 
BRANCH  11  12
ATOM     12  CG  GLU A   2      19.540  62.785  17.315  0.00  0.00    +0.000 C 
BRANCH  12  13
ATOM     13  CD  GLU A   2      19.202  62.771  15.874  0.00  0.00    +0.000 C 
ATOM     14  OE1 GLU A   2      18.406  61.833  15.549  0.00  0.00    +0.000 OA
ATOM     15  OE2 GLU A   2      18.865  63.967  15.224  0.00  0.00    +0.000 OA
ENDBRANCH  12  13
ENDBRANCH  11  12
ENDBRANCH  10  11
ENDBRANCH   9  10
TORSDOF 8
ENDMDL
MODEL 2
REMARK VINA RESULT:      -5.1     14.416     16.233
REMARK  Name = 
REMARK  8 active torsions:
REMARK  status: ('A' for Active; 'I' for Inactive)
REMARK    1  A    between atoms: CA_2  and  CB_3
REMARK    2  A    between atoms: CA_2  and  C_7
REMARK    3  A    between atoms: CB_3  and  CG_4
REMARK    4  A    between atoms: N_9  and  CA_10
REMARK    5  A    between atoms: CA_10  and  CB_11
REMARK    6  A    between atoms: CA_10  and  C_16
REMARK    7  A    between atoms: CB_11  and  CG_12
REMARK    8  A    between atoms: CG_12  and  CD_13
REMARK                            x       y       z     vdW  Elec       q    Type
REMARK                         _______ _______ _______ _____ _____    ______ ____
ROOT
ATOM      7  C   ASP A   1       9.606  56.275   8.129  0.00  0.00    +0.000 C 
ATOM      8  O   ASP A   1       9.178  55.928   6.980  0.00  0.00    +0.000 OA
ATOM      9  N   GLU A   2       9.081  57.457   8.723  0.00  0.00    +0.000 NA
ENDROOT
BRANCH   7   2
ATOM      1  N   ASP A   1      11.157  55.243   6.738  0.00  0.00    +0.000 NA
ATOM      2  CA  ASP A   1      11.213  56.216   7.974  0.00  0.00    +0.000 C 
BRANCH   2   3
ATOM      3  CB  ASP A   1      11.244  57.554   7.016  0.00  0.00    +0.000 C 
BRANCH   3   4
ATOM      4  CG  ASP A   1      12.653  57.801   6.674  0.00  0.00    +0.000 C 
ATOM      5  OD1 ASP A   1      12.993  57.883   5.458  0.00  0.00    +0.000 OA
ATOM      6  OD2 ASP A   1      13.358  58.617   7.570  0.00  0.00    +0.000 OA
ENDBRANCH   3   4
ENDBRANCH   2   3
ENDBRANCH   7   2
BRANCH   9  10
ATOM     10  CA  GLU A   2       7.694  57.806   8.043  0.00  0.00    +0.000 C 
BRANCH  10  16
ATOM     16  C   GLU A   2       8.009  59.376   7.901  0.00  0.00    +0.000 C 
ATOM     17  O   GLU A   2       8.634  59.808   6.970  0.00  0.00    +0.000 OA
ATOM     18  OXT GLU A   2       7.050  60.169   8.533  0.00  0.00    +0.000 OA
ENDBRANCH  10  16
BRANCH  10  11
ATOM     11  CB  GLU A   2       6.951  57.933   9.503  0.00  0.00    +0.000 C 
BRANCH  11  12
ATOM     12  CG  GLU A   2       5.888  56.950   9.624  0.00  0.00    +0.000 C 
BRANCH  12  13
ATOM     13  CD  GLU A   2       5.687  56.318  10.948  0.00  0.00    +0.000 C 
ATOM     14  OE1 GLU A   2       6.743  56.282  11.657  0.00  0.00    +0.000 OA
ATOM     15  OE2 GLU A   2       4.570  56.660  11.724  0.00  0.00    +0.000 OA
ENDBRANCH  12  13
ENDBRANCH  11  12
ENDBRANCH  10  11
ENDBRANCH   9  10
TORSDOF 8
ENDMDL
MODEL 3
REMARK VINA RESULT:      -5.0     25.603     28.264
REMARK  Name = 
REMARK  8 active torsions:
REMARK  status: ('A' for Active; 'I' for Inactive)
REMARK    1  A    between atoms: CA_2  and  CB_3
REMARK    2  A    between atoms: CA_2  and  C_7
REMARK    3  A    between atoms: CB_3  and  CG_4
REMARK    4  A    between atoms: N_9  and  CA_10
REMARK    5  A    between atoms: CA_10  and  CB_11
REMARK    6  A    between atoms: CA_10  and  C_16
REMARK    7  A    between atoms: CB_11  and  CG_12
REMARK    8  A    between atoms: CG_12  and  CD_13
REMARK                            x       y       z     vdW  Elec       q    Type
REMARK                         _______ _______ _______ _____ _____    ______ ____
ROOT
ATOM      7  C   ASP A   1      25.993  55.982  -6.314  0.00  0.00    +0.000 C 
ATOM      8  O   ASP A   1      26.567  55.101  -5.595  0.00  0.00    +0.000 OA
ATOM      9  N   GLU A   2      24.605  56.226  -6.115  0.00  0.00    +0.000 NA
ENDROOT
BRANCH   7   2
ATOM      1  N   ASP A   1      25.093  56.123  -8.453  0.00  0.00    +0.000 NA
ATOM      2  CA  ASP A   1      26.434  55.598  -7.819  0.00  0.00    +0.000 C 
BRANCH   2   3
ATOM      3  CB  ASP A   1      27.194  57.041  -8.043  0.00  0.00    +0.000 C 
BRANCH   3   4
ATOM      4  CG  ASP A   1      28.386  56.773  -8.863  0.00  0.00    +0.000 C 
ATOM      5  OD1 ASP A   1      29.112  55.772  -8.597  0.00  0.00    +0.000 OA
ATOM      6  OD2 ASP A   1      28.276  57.116 -10.218  0.00  0.00    +0.000 OA
ENDBRANCH   3   4
ENDBRANCH   2   3
ENDBRANCH   7   2
BRANCH   9  10
ATOM     10  CA  GLU A   2      24.189  55.702  -4.679  0.00  0.00    +0.000 C 
BRANCH  10  16
ATOM     16  C   GLU A   2      22.917  54.871  -5.206  0.00  0.00    +0.000 C 
ATOM     17  O   GLU A   2      22.857  54.469  -6.336  0.00  0.00    +0.000 OA
ATOM     18  OXT GLU A   2      22.271  54.182  -4.178  0.00  0.00    +0.000 OA
ENDBRANCH  10  16
BRANCH  10  11
ATOM     11  CB  GLU A   2      23.349  57.079  -4.364  0.00  0.00    +0.000 C 
BRANCH  11  12
ATOM     12  CG  GLU A   2      23.421  57.992  -5.492  0.00  0.00    +0.000 C 
BRANCH  12  13
ATOM     13  CD  GLU A   2      22.215  58.792  -5.803  0.00  0.00    +0.000 C 
ATOM     14  OE1 GLU A   2      21.371  58.175  -6.529  0.00  0.00    +0.000 OA
ATOM     15  OE2 GLU A   2      21.572  59.513  -4.785  0.00  0.00    +0.000 OA
ENDBRANCH  12  13
ENDBRANCH  11  12
ENDBRANCH  10  11
ENDBRANCH   9  10
TORSDOF 8
ENDMDL
MODEL 4
REMARK VINA RESULT:      -4.9     24.021     25.266
REMARK  Name = 
REMARK  8 active torsions:
REMARK  status: ('A' for Active; 'I' for Inactive)
REMARK    1  A    between atoms: CA_2  and  CB_3
REMARK    2  A    between atoms: CA_2  and  C_7
REMARK    3  A    between atoms: CB_3  and  CG_4
REMARK    4  A    between atoms: N_9  and  CA_10
REMARK    5  A    between atoms: CA_10  and  CB_11
REMARK    6  A    between atoms: CA_10  and  C_16
REMARK    7  A    between atoms: CB_11  and  CG_12
REMARK    8  A    between atoms: CG_12  and  CD_13
REMARK                            x       y       z     vdW  Elec       q    Type
REMARK                         _______ _______ _______ _____ _____    ______ ____
ROOT
ATOM      7  C   ASP A   1       8.476  83.141  25.318  0.00  0.00    +0.000 C 
ATOM      8  O   ASP A   1       8.638  81.886  25.167  0.00  0.00    +0.000 OA
ATOM      9  N   GLU A   2       7.192  83.622  25.700  0.00  0.00    +0.000 NA
ENDROOT
BRANCH   7   2
ATOM      1  N   ASP A   1      10.438  82.964  24.083  0.00  0.00    +0.000 NA
ATOM      2  CA  ASP A   1       9.093  83.773  23.965  0.00  0.00    +0.000 C 
BRANCH   2   3
ATOM      3  CB  ASP A   1       8.394  82.620  23.020  0.00  0.00    +0.000 C 
BRANCH   3   4
ATOM      4  CG  ASP A   1       7.809  83.314  21.862  0.00  0.00    +0.000 C 
ATOM      5  OD1 ASP A   1       8.217  84.473  21.561  0.00  0.00    +0.000 OA
ATOM      6  OD2 ASP A   1       7.436  82.491  20.790  0.00  0.00    +0.000 OA
ENDBRANCH   3   4
ENDBRANCH   2   3
ENDBRANCH   7   2
BRANCH   9  10
ATOM     10  CA  GLU A   2       6.372  82.437  26.358  0.00  0.00    +0.000 C 
BRANCH  10  16
ATOM     16  C   GLU A   2       5.010  82.766  25.567  0.00  0.00    +0.000 C 
ATOM     17  O   GLU A   2       3.938  82.663  26.098  0.00  0.00    +0.000 OA
ATOM     18  OXT GLU A   2       5.204  83.693  24.542  0.00  0.00    +0.000 OA
ENDBRANCH  10  16
BRANCH  10  11
ATOM     11  CB  GLU A   2       6.007  83.352  27.673  0.00  0.00    +0.000 C 
BRANCH  11  12
ATOM     12  CG  GLU A   2       6.516  82.733  28.885  0.00  0.00    +0.000 C 
BRANCH  12  13
ATOM     13  CD  GLU A   2       7.833  82.061  28.810  0.00  0.00    +0.000 C 
ATOM     14  OE1 GLU A   2       8.806  82.816  29.128  0.00  0.00    +0.000 OA
ATOM     15  OE2 GLU A   2       7.994  80.776  29.349  0.00  0.00    +0.000 OA
ENDBRANCH  12  13
ENDBRANCH  11  12
ENDBRANCH  10  11
ENDBRANCH   9  10
TORSDOF 8
ENDMDL
MODEL 5
REMARK VINA RESULT:      -4.9      3.905      8.047
REMARK  Name = 
REMARK  8 active torsions:
REMARK  status: ('A' for Active; 'I' for Inactive)
REMARK    1  A    between atoms: CA_2  and  CB_3
REMARK    2  A    between atoms: CA_2  and  C_7
REMARK    3  A    between atoms: CB_3  and  CG_4
REMARK    4  A    between atoms: N_9  and  CA_10
REMARK    5  A    between atoms: CA_10  and  CB_11
REMARK    6  A    between atoms: CA_10  and  C_16
REMARK    7  A    between atoms: CB_11  and  CG_12
REMARK    8  A    between atoms: CG_12  and  CD_13
REMARK                            x       y       z     vdW  Elec       q    Type
REMARK                         _______ _______ _______ _____ _____    ______ ____
ROOT
ATOM      7  C   ASP A   1      19.664  64.947  15.445  0.00  0.00    +0.000 C 
ATOM      8  O   ASP A   1      20.876  64.827  15.819  0.00  0.00    +0.000 OA
ATOM      9  N   GLU A   2      18.915  63.769  15.171  0.00  0.00    +0.000 NA
ENDROOT
BRANCH   7   2
ATOM      1  N   ASP A   1      18.370  65.575  13.619  0.00  0.00    +0.000 NA
ATOM      2  CA  ASP A   1      19.737  66.032  14.250  0.00  0.00    +0.000 C 
BRANCH   2   3
ATOM      3  CB  ASP A   1      19.014  67.195  15.163  0.00  0.00    +0.000 C 
BRANCH   3   4
ATOM      4  CG  ASP A   1      19.617  68.480  14.774  0.00  0.00    +0.000 C 
ATOM      5  OD1 ASP A   1      19.427  68.928  13.607  0.00  0.00    +0.000 OA
ATOM      6  OD2 ASP A   1      19.715  69.435  15.796  0.00  0.00    +0.000 OA
ENDBRANCH   3   4
ENDBRANCH   2   3
ENDBRANCH   7   2
BRANCH   9  10
ATOM     10  CA  GLU A   2      19.605  62.538  15.891  0.00  0.00    +0.000 C 
BRANCH  10  16
ATOM     16  C   GLU A   2      19.834  61.704  14.535  0.00  0.00    +0.000 C 
ATOM     17  O   GLU A   2      20.021  60.519  14.553  0.00  0.00    +0.000 OA
ATOM     18  OXT GLU A   2      19.218  62.303  13.434  0.00  0.00    +0.000 OA
ENDBRANCH  10  16
BRANCH  10  11
ATOM     11  CB  GLU A   2      18.150  61.861  16.241  0.00  0.00    +0.000 C 
BRANCH  11  12
ATOM     12  CG  GLU A   2      18.158  61.292  17.579  0.00  0.00    +0.000 C 
BRANCH  12  13
ATOM     13  CD  GLU A   2      16.892  61.327  18.345  0.00  0.00    +0.000 C 
ATOM     14  OE1 GLU A   2      16.053  62.173  17.899  0.00  0.00    +0.000 OA
ATOM     15  OE2 GLU A   2      16.258  60.128  18.703  0.00  0.00    +0.000 OA
ENDBRANCH  12  13
ENDBRANCH  11  12
ENDBRANCH  10  11
ENDBRANCH   9  10
TORSDOF 8
ENDMDL
MODEL 6
REMARK VINA RESULT:      -4.7     37.213     40.581
REMARK  Name = 
REMARK  8 active torsions:
REMARK  status: ('A' for Active; 'I' for Inactive)
REMARK    1  A    between atoms: CA_2  and  CB_3
REMARK    2  A    between atoms: CA_2  and  C_7
REMARK    3  A    between atoms: CB_3  and  CG_4
REMARK    4  A    between atoms: N_9  and  CA_10
REMARK    5  A    between atoms: CA_10  and  CB_11
REMARK    6  A    between atoms: CA_10  and  C_16
REMARK    7  A    between atoms: CB_11  and  CG_12
REMARK    8  A    between atoms: CG_12  and  CD_13
REMARK                            x       y       z     vdW  Elec       q    Type
REMARK                         _______ _______ _______ _____ _____    ______ ____
ROOT
ATOM      7  C   ASP A   1      25.270  51.506 -17.921  0.00  0.00    +0.000 C 
ATOM      8  O   ASP A   1      24.883  50.337 -18.249  0.00  0.00    +0.000 OA
ATOM      9  N   GLU A   2      26.107  52.224 -18.820  0.00  0.00    +0.000 NA
ENDROOT
BRANCH   7   2
ATOM      1  N   ASP A   1      27.162  52.121 -16.718  0.00  0.00    +0.000 NA
ATOM      2  CA  ASP A   1      25.843  51.315 -16.422  0.00  0.00    +0.000 C 
BRANCH   2   3
ATOM      3  CB  ASP A   1      25.057  52.652 -15.873  0.00  0.00    +0.000 C 
BRANCH   3   4
ATOM      4  CG  ASP A   1      24.489  52.305 -14.561  0.00  0.00    +0.000 C 
ATOM      5  OD1 ASP A   1      23.233  52.287 -14.412  0.00  0.00    +0.000 OA
ATOM      6  OD2 ASP A   1      25.214  51.360 -13.820  0.00  0.00    +0.000 OA
ENDBRANCH   3   4
ENDBRANCH   2   3
ENDBRANCH   7   2
BRANCH   9  10
ATOM     10  CA  GLU A   2      25.954  51.608 -20.272  0.00  0.00    +0.000 C 
BRANCH  10  16
ATOM     16  C   GLU A   2      27.516  51.255 -20.430  0.00  0.00    +0.000 C 
ATOM     17  O   GLU A   2      28.352  52.117 -20.458  0.00  0.00    +0.000 OA
ATOM     18  OXT GLU A   2      27.826  49.988 -19.935  0.00  0.00    +0.000 OA
ENDBRANCH  10  16
BRANCH  10  11
ATOM     11  CB  GLU A   2      26.063  53.092 -20.969  0.00  0.00    +0.000 C 
BRANCH  11  12
ATOM     12  CG  GLU A   2      24.770  53.515 -21.478  0.00  0.00    +0.000 C 
BRANCH  12  13
ATOM     13  CD  GLU A   2      24.735  54.712 -22.348  0.00  0.00    +0.000 C 
ATOM     14  OE1 GLU A   2      25.337  54.551 -23.457  0.00  0.00    +0.000 OA
ATOM     15  OE2 GLU A   2      23.533  55.414 -22.523  0.00  0.00    +0.000 OA
ENDBRANCH  12  13
ENDBRANCH  11  12
ENDBRANCH  10  11
ENDBRANCH   9  10
TORSDOF 8
ENDMDL
MODEL 7
REMARK VINA RESULT:      -4.7     24.167     25.384
REMARK  Name = 
REMARK  8 active torsions:
REMARK  status: ('A' for Active; 'I' for Inactive)
REMARK    1  A    between atoms: CA_2  and  CB_3
REMARK    2  A    between atoms: CA_2  and  C_7
REMARK    3  A    between atoms: CB_3  and  CG_4
REMARK    4  A    between atoms: N_9  and  CA_10
REMARK    5  A    between atoms: CA_10  and  CB_11
REMARK    6  A    between atoms: CA_10  and  C_16
REMARK    7  A    between atoms: CB_11  and  CG_12
REMARK    8  A    between atoms: CG_12  and  CD_13
REMARK                            x       y       z     vdW  Elec       q    Type
REMARK                         _______ _______ _______ _____ _____    ______ ____
ROOT
ATOM      7  C   ASP A   1       7.656  82.670  26.222  0.00  0.00    +0.000 C 
ATOM      8  O   ASP A   1       7.345  81.439  26.117  0.00  0.00    +0.000 OA
ATOM      9  N   GLU A   2       6.724  83.560  26.826  0.00  0.00    +0.000 NA
ENDROOT
BRANCH   7   2
ATOM      1  N   ASP A   1       9.628  82.574  24.994  0.00  0.00    +0.000 NA
ATOM      2  CA  ASP A   1       8.155  83.069  24.738  0.00  0.00    +0.000 C 
BRANCH   2   3
ATOM      3  CB  ASP A   1       7.695  81.617  24.114  0.00  0.00    +0.000 C 
BRANCH   3   4
ATOM      4  CG  ASP A   1       8.074  81.625  22.692  0.00  0.00    +0.000 C 
ATOM      5  OD1 ASP A   1       7.927  80.574  22.004  0.00  0.00    +0.000 OA
ATOM      6  OD2 ASP A   1       7.871  82.839  22.020  0.00  0.00    +0.000 OA
ENDBRANCH   3   4
ENDBRANCH   2   3
ENDBRANCH   7   2
BRANCH   9  10
ATOM     10  CA  GLU A   2       5.705  82.723  27.704  0.00  0.00    +0.000 C 
BRANCH  10  16
ATOM     16  C   GLU A   2       4.474  83.733  27.472  0.00  0.00    +0.000 C 
ATOM     17  O   GLU A   2       4.190  84.132  26.376  0.00  0.00    +0.000 OA
ATOM     18  OXT GLU A   2       3.488  83.600  28.451  0.00  0.00    +0.000 OA
ENDBRANCH  10  16
BRANCH  10  11
ATOM     11  CB  GLU A   2       6.229  83.439  29.087  0.00  0.00    +0.000 C 
BRANCH  11  12
ATOM     12  CG  GLU A   2       6.659  82.440  30.049  0.00  0.00    +0.000 C 
BRANCH  12  13
ATOM     13  CD  GLU A   2       8.046  81.933  29.936  0.00  0.00    +0.000 C 
ATOM     14  OE1 GLU A   2       8.122  80.782  29.398  0.00  0.00    +0.000 OA
ATOM     15  OE2 GLU A   2       9.063  82.778  29.467  0.00  0.00    +0.000 OA
ENDBRANCH  12  13
ENDBRANCH  11  12
ENDBRANCH  10  11
ENDBRANCH   9  10
TORSDOF 8
ENDMDL
MODEL 8
REMARK VINA RESULT:      -4.7     21.806     25.445
REMARK  Name = 
REMARK  8 active torsions:
REMARK  status: ('A' for Active; 'I' for Inactive)
REMARK    1  A    between atoms: CA_2  and  CB_3
REMARK    2  A    between atoms: CA_2  and  C_7
REMARK    3  A    between atoms: CB_3  and  CG_4
REMARK    4  A    between atoms: N_9  and  CA_10
REMARK    5  A    between atoms: CA_10  and  CB_11
REMARK    6  A    between atoms: CA_10  and  C_16
REMARK    7  A    between atoms: CB_11  and  CG_12
REMARK    8  A    between atoms: CG_12  and  CD_13
REMARK                            x       y       z     vdW  Elec       q    Type
REMARK                         _______ _______ _______ _____ _____    ______ ____
ROOT
ATOM      7  C   ASP A   1      23.533  55.486  -3.761  0.00  0.00    +0.000 C 
ATOM      8  O   ASP A   1      22.599  54.837  -3.187  0.00  0.00    +0.000 OA
ATOM      9  N   GLU A   2      23.331  56.865  -4.044  0.00  0.00    +0.000 NA
ENDROOT
BRANCH   7   2
ATOM      1  N   ASP A   1      22.510  54.692  -5.692  0.00  0.00    +0.000 NA
ATOM      2  CA  ASP A   1      23.928  54.556  -5.022  0.00  0.00    +0.000 C 
BRANCH   2   3
ATOM      3  CB  ASP A   1      24.534  55.832  -5.867  0.00  0.00    +0.000 C 
BRANCH   3   4
ATOM      4  CG  ASP A   1      25.298  55.273  -6.993  0.00  0.00    +0.000 C 
ATOM      5  OD1 ASP A   1      25.537  54.032  -7.028  0.00  0.00    +0.000 OA
ATOM      6  OD2 ASP A   1      25.093  55.899  -8.231  0.00  0.00    +0.000 OA
ENDBRANCH   3   4
ENDBRANCH   2   3
ENDBRANCH   7   2
BRANCH   9  10
ATOM     10  CA  GLU A   2      22.175  57.420  -3.113  0.00  0.00    +0.000 C 
BRANCH  10  16
ATOM     16  C   GLU A   2      21.962  58.771  -3.959  0.00  0.00    +0.000 C 
ATOM     17  O   GLU A   2      21.187  59.616  -3.604  0.00  0.00    +0.000 OA
ATOM     18  OXT GLU A   2      23.096  59.119  -4.696  0.00  0.00    +0.000 OA
ENDBRANCH  10  16
BRANCH  10  11
ATOM     11  CB  GLU A   2      23.260  58.068  -2.064  0.00  0.00    +0.000 C 
BRANCH  11  12
ATOM     12  CG  GLU A   2      22.796  57.928  -0.694  0.00  0.00    +0.000 C 
BRANCH  12  13
ATOM     13  CD  GLU A   2      23.038  56.633  -0.019  0.00  0.00    +0.000 C 
ATOM     14  OE1 GLU A   2      22.001  55.898   0.055  0.00  0.00    +0.000 OA
ATOM     15  OE2 GLU A   2      24.172  55.874  -0.346  0.00  0.00    +0.000 OA
ENDBRANCH  12  13
ENDBRANCH  11  12
ENDBRANCH  10  11
ENDBRANCH   9  10
TORSDOF 8
ENDMDL
MODEL 9
REMARK VINA RESULT:      -4.6     26.229     28.430
REMARK  Name = 
REMARK  8 active torsions:
REMARK  status: ('A' for Active; 'I' for Inactive)
REMARK    1  A    between atoms: CA_2  and  CB_3
REMARK    2  A    between atoms: CA_2  and  C_7
REMARK    3  A    between atoms: CB_3  and  CG_4
REMARK    4  A    between atoms: N_9  and  CA_10
REMARK    5  A    between atoms: CA_10  and  CB_11
REMARK    6  A    between atoms: CA_10  and  C_16
REMARK    7  A    between atoms: CB_11  and  CG_12
REMARK    8  A    between atoms: CG_12  and  CD_13
REMARK                            x       y       z     vdW  Elec       q    Type
REMARK                         _______ _______ _______ _____ _____    ______ ____
ROOT
ATOM      7  C   ASP A   1      25.529  56.128  -7.095  0.00  0.00    +0.000 C 
ATOM      8  O   ASP A   1      24.960  55.988  -8.227  0.00  0.00    +0.000 OA
ATOM      9  N   GLU A   2      26.853  56.646  -7.057  0.00  0.00    +0.000 NA
ENDROOT
BRANCH   7   2
ATOM      1  N   ASP A   1      26.668  54.774  -5.587  0.00  0.00    +0.000 NA
ATOM      2  CA  ASP A   1      25.307  54.699  -6.375  0.00  0.00    +0.000 C 
BRANCH   2   3
ATOM      3  CB  ASP A   1      24.463  55.373  -5.134  0.00  0.00    +0.000 C 
BRANCH   3   4
ATOM      4  CG  ASP A   1      23.277  54.529  -4.916  0.00  0.00    +0.000 C 
ATOM      5  OD1 ASP A   1      22.828  54.379  -3.743  0.00  0.00    +0.000 OA
ATOM      6  OD2 ASP A   1      22.327  54.546  -5.947  0.00  0.00    +0.000 OA
ENDBRANCH   3   4
ENDBRANCH   2   3
ENDBRANCH   7   2
BRANCH   9  10
ATOM     10  CA  GLU A   2      27.144  57.421  -8.408  0.00  0.00    +0.000 C 
BRANCH  10  16
ATOM     16  C   GLU A   2      28.581  56.737  -8.645  0.00  0.00    +0.000 C 
ATOM     17  O   GLU A   2      28.971  55.842  -7.946  0.00  0.00    +0.000 OA
ATOM     18  OXT GLU A   2      28.997  56.826  -9.974  0.00  0.00    +0.000 OA
ENDBRANCH  10  16
BRANCH  10  11
ATOM     11  CB  GLU A   2      27.729  58.723  -7.594  0.00  0.00    +0.000 C 
BRANCH  11  12
ATOM     12  CG  GLU A   2      26.665  59.671  -7.312  0.00  0.00    +0.000 C 
BRANCH  12  13
ATOM     13  CD  GLU A   2      26.392  59.991  -5.893  0.00  0.00    +0.000 C 
ATOM     14  OE1 GLU A   2      25.431  59.319  -5.398  0.00  0.00    +0.000 OA
ATOM     15  OE2 GLU A   2      27.454  60.096  -4.983  0.00  0.00    +0.000 OA
ENDBRANCH  12  13
ENDBRANCH  11  12
ENDBRANCH  10  11
ENDBRANCH   9  10
TORSDOF 8
ENDMDL
MODEL 10
REMARK VINA RESULT:      -4.6     14.393     15.683
REMARK  Name = 
REMARK  8 active torsions:
REMARK  status: ('A' for Active; 'I' for Inactive)
REMARK    1  A    between atoms: CA_2  and  CB_3
REMARK    2  A    between atoms: CA_2  and  C_7
REMARK    3  A    between atoms: CB_3  and  CG_4
REMARK    4  A    between atoms: N_9  and  CA_10
REMARK    5  A    between atoms: CA_10  and  CB_11
REMARK    6  A    between atoms: CA_10  and  C_16
REMARK    7  A    between atoms: CB_11  and  CG_12
REMARK    8  A    between atoms: CG_12  and  CD_13
REMARK                            x       y       z     vdW  Elec       q    Type
REMARK                         _______ _______ _______ _____ _____    ______ ____
ROOT
ATOM      7  C   ASP A   1       8.986  59.000   7.341  0.00  0.00    +0.000 C 
ATOM      8  O   ASP A   1       8.626  58.529   6.213  0.00  0.00    +0.000 OA
ATOM      9  N   GLU A   2       9.829  58.211   8.173  0.00  0.00    +0.000 NA
ENDROOT
BRANCH   7   2
ATOM      1  N   ASP A   1       6.982  59.942   6.630  0.00  0.00    +0.000 NA
ATOM      2  CA  ASP A   1       7.601  59.499   8.008  0.00  0.00    +0.000 C 
BRANCH   2   3
ATOM      3  CB  ASP A   1       6.931  57.999   7.914  0.00  0.00    +0.000 C 
BRANCH   3   4
ATOM      4  CG  ASP A   1       6.331  57.716   9.228  0.00  0.00    +0.000 C 
ATOM      5  OD1 ASP A   1       7.031  57.851  10.272  0.00  0.00    +0.000 OA
ATOM      6  OD2 ASP A   1       4.969  58.027   9.349  0.00  0.00    +0.000 OA
ENDBRANCH   3   4
ENDBRANCH   2   3
ENDBRANCH   7   2
BRANCH   9  10
ATOM     10  CA  GLU A   2      10.558  57.121   7.284  0.00  0.00    +0.000 C 
BRANCH  10  16
ATOM     16  C   GLU A   2      10.680  56.044   8.472  0.00  0.00    +0.000 C 
ATOM     17  O   GLU A   2      11.736  55.805   8.993  0.00  0.00    +0.000 OA
ATOM     18  OXT GLU A   2       9.493  55.913   9.194  0.00  0.00    +0.000 OA
ENDBRANCH  10  16
BRANCH  10  11
ATOM     11  CB  GLU A   2      12.025  57.810   7.552  0.00  0.00    +0.000 C 
BRANCH  11  12
ATOM     12  CG  GLU A   2      12.813  57.829   6.331  0.00  0.00    +0.000 C 
BRANCH  12  13
ATOM     13  CD  GLU A   2      12.345  58.700   5.229  0.00  0.00    +0.000 C 
ATOM     14  OE1 GLU A   2      12.900  59.845   5.217  0.00  0.00    +0.000 OA
ATOM     15  OE2 GLU A   2      12.229  58.183   3.930  0.00  0.00    +0.000 OA
ENDBRANCH  12  13
ENDBRANCH  11  12
ENDBRANCH  10  11
ENDBRANCH   9  10
TORSDOF 8
ENDMDL
