MODEL 1
REMARK VINA RESULT:      -4.9      0.000      0.000
REMARK  Name = 
REMARK  7 active torsions:
REMARK  status: ('A' for Active; 'I' for Inactive)
REMARK    1  A    between atoms: CG_2  and  CB_4
REMARK    2  A    between atoms: CB_4  and  CA_5
REMARK    3  A    between atoms: CA_5  and  N_6
REMARK    4  A    between atoms: CA_5  and  C_15
REMARK    5  A    between atoms: C_7  and  CA_9
REMARK    6  A    between atoms: CA_9  and  CB_11
REMARK    7  A    between atoms: CB_11  and  CG_12
REMARK                            x       y       z     vdW  Elec       q    Type
REMARK                         _______ _______ _______ _____ _____    ______ ____
ROOT
ATOM      6  N   LEU A   2      18.506  68.192  12.461  0.00  0.00    +0.000 NA
ATOM      7  C   ASP A   1      17.539  67.665  13.258  0.00  0.00    +0.000 C 
ATOM      8  O   ASP A   1      17.882  67.239  14.336  0.00  0.00    +0.000 OA
ENDROOT
BRANCH   7   9
ATOM      9  CA  ASP A   1      16.702  66.734  12.228  0.00  0.00    +0.000 C 
ATOM     10  N   ASP A   1      15.298  67.264  12.716  0.00  0.00    +0.000 NA
BRANCH   9  11
ATOM     11  CB  ASP A   1      16.715  67.776  10.956  0.00  0.00    +0.000 C 
BRANCH  11  12
ATOM     12  CG  ASP A   1      15.750  67.062  10.057  0.00  0.00    +0.000 C 
ATOM     13  OD1 ASP A   1      14.729  67.613   9.544  0.00  0.00    +0.000 OA
ATOM     14  OD2 ASP A   1      15.961  65.761   9.598  0.00  0.00    +0.000 OA
ENDBRANCH  11  12
ENDBRANCH   9  11
ENDBRANCH   7   9
BRANCH   6   5
ATOM      5  CA  LEU A   2      19.965  68.574  12.856  0.00  0.00    +0.000 C 
BRANCH   5  15
ATOM     15  C   LEU A   2      20.575  68.569  11.356  0.00  0.00    +0.000 C 
ATOM     16  O   LEU A   2      21.812  68.819  11.560  0.00  0.00    +0.000 OA
ATOM     17  OXT LEU A   2      20.442  67.270  10.840  0.00  0.00    +0.000 OA
ENDBRANCH   5  15
BRANCH   5   4
ATOM      4  CB  LEU A   2      19.708  70.204  12.807  0.00  0.00    +0.000 C 
BRANCH   4   2
ATOM      1  CD1 LEU A   2      20.713  69.480  15.001  0.00  0.00    +0.000 C 
ATOM      2  CG  LEU A   2      20.109  70.590  14.197  0.00  0.00    +0.000 C 
ATOM      3  CD2 LEU A   2      20.987  71.775  14.321  0.00  0.00    +0.000 C 
ENDBRANCH   4   2
ENDBRANCH   5   4
ENDBRANCH   6   5
TORSDOF 7
ENDMDL
MODEL 2
REMARK VINA RESULT:      -4.8     27.124     29.775
REMARK  Name = 
REMARK  7 active torsions:
REMARK  status: ('A' for Active; 'I' for Inactive)
REMARK    1  A    between atoms: CG_2  and  CB_4
REMARK    2  A    between atoms: CB_4  and  CA_5
REMARK    3  A    between atoms: CA_5  and  N_6
REMARK    4  A    between atoms: CA_5  and  C_15
REMARK    5  A    between atoms: C_7  and  CA_9
REMARK    6  A    between atoms: CA_9  and  CB_11
REMARK    7  A    between atoms: CB_11  and  CG_12
REMARK                            x       y       z     vdW  Elec       q    Type
REMARK                         _______ _______ _______ _____ _____    ______ ____
ROOT
ATOM      6  N   LEU A   2      15.842  60.575 -16.264  0.00  0.00    +0.000 NA
ATOM      7  C   ASP A   1      15.365  61.786 -15.873  0.00  0.00    +0.000 C 
ATOM      8  O   ASP A   1      15.760  62.757 -16.475  0.00  0.00    +0.000 OA
ENDROOT
BRANCH   7   9
ATOM      9  CA  ASP A   1      15.487  61.706 -14.258  0.00  0.00    +0.000 C 
ATOM     10  N   ASP A   1      15.904  63.221 -14.103  0.00  0.00    +0.000 NA
BRANCH   9  11
ATOM     11  CB  ASP A   1      13.915  62.047 -13.918  0.00  0.00    +0.000 C 
BRANCH  11  12
ATOM     12  CG  ASP A   1      13.692  61.055 -12.816  0.00  0.00    +0.000 C 
ATOM     13  OD1 ASP A   1      12.597  60.441 -12.633  0.00  0.00    +0.000 OA
ATOM     14  OD2 ASP A   1      14.713  60.620 -11.969  0.00  0.00    +0.000 OA
ENDBRANCH  11  12
ENDBRANCH   9  11
ENDBRANCH   7   9
BRANCH   6   5
ATOM      5  CA  LEU A   2      16.625  60.234 -17.569  0.00  0.00    +0.000 C 
BRANCH   5  15
ATOM     15  C   LEU A   2      18.081  60.075 -16.880  0.00  0.00    +0.000 C 
ATOM     16  O   LEU A   2      18.579  59.081 -17.512  0.00  0.00    +0.000 OA
ATOM     17  OXT LEU A   2      18.825  61.230 -17.169  0.00  0.00    +0.000 OA
ENDBRANCH   5  15
BRANCH   5   4
ATOM      4  CB  LEU A   2      16.346  58.609 -17.487  0.00  0.00    +0.000 C 
BRANCH   4   2
ATOM      1  CD1 LEU A   2      13.999  58.214 -18.315  0.00  0.00    +0.000 C 
ATOM      2  CG  LEU A   2      15.440  58.424 -18.665  0.00  0.00    +0.000 C 
ATOM      3  CD2 LEU A   2      15.508  59.465 -19.715  0.00  0.00    +0.000 C 
ENDBRANCH   4   2
ENDBRANCH   5   4
ENDBRANCH   6   5
TORSDOF 7
ENDMDL
MODEL 3
REMARK VINA RESULT:      -4.8      2.387      5.912
REMARK  Name = 
REMARK  7 active torsions:
REMARK  status: ('A' for Active; 'I' for Inactive)
REMARK    1  A    between atoms: CG_2  and  CB_4
REMARK    2  A    between atoms: CB_4  and  CA_5
REMARK    3  A    between atoms: CA_5  and  N_6
REMARK    4  A    between atoms: CA_5  and  C_15
REMARK    5  A    between atoms: C_7  and  CA_9
REMARK    6  A    between atoms: CA_9  and  CB_11
REMARK    7  A    between atoms: CB_11  and  CG_12
REMARK                            x       y       z     vdW  Elec       q    Type
REMARK                         _______ _______ _______ _____ _____    ______ ____
ROOT
ATOM      6  N   LEU A   2      16.593  66.628  11.062  0.00  0.00    +0.000 NA
ATOM      7  C   ASP A   1      16.114  66.681  12.333  0.00  0.00    +0.000 C 
ATOM      8  O   ASP A   1      15.309  67.547  12.585  0.00  0.00    +0.000 OA
ENDROOT
BRANCH   7   9
ATOM      9  CA  ASP A   1      17.460  66.516  13.223  0.00  0.00    +0.000 C 
ATOM     10  N   ASP A   1      18.190  65.613  12.154  0.00  0.00    +0.000 NA
BRANCH   9  11
ATOM     11  CB  ASP A   1      18.226  67.868  12.686  0.00  0.00    +0.000 C 
BRANCH  11  12
ATOM     12  CG  ASP A   1      18.957  68.239  13.941  0.00  0.00    +0.000 C 
ATOM     13  OD1 ASP A   1      19.961  69.013  13.967  0.00  0.00    +0.000 OA
ATOM     14  OD2 ASP A   1      18.516  67.869  15.213  0.00  0.00    +0.000 OA
ENDBRANCH  11  12
ENDBRANCH   9  11
ENDBRANCH   7   9
BRANCH   6   5
ATOM      5  CA  LEU A   2      16.041  67.363   9.802  0.00  0.00    +0.000 C 
BRANCH   5  15
ATOM     15  C   LEU A   2      17.478  67.746   9.162  0.00  0.00    +0.000 C 
ATOM     16  O   LEU A   2      17.923  66.608   8.782  0.00  0.00    +0.000 OA
ATOM     17  OXT LEU A   2      17.249  68.554   8.038  0.00  0.00    +0.000 OA
ENDBRANCH   5  15
BRANCH   5   4
ATOM      4  CB  LEU A   2      15.927  66.002   8.877  0.00  0.00    +0.000 C 
BRANCH   4   2
ATOM      1  CD1 LEU A   2      13.665  67.102   9.039  0.00  0.00    +0.000 C 
ATOM      2  CG  LEU A   2      14.572  66.195   8.267  0.00  0.00    +0.000 C 
ATOM      3  CD2 LEU A   2      14.546  66.620   6.850  0.00  0.00    +0.000 C 
ENDBRANCH   4   2
ENDBRANCH   5   4
ENDBRANCH   6   5
TORSDOF 7
ENDMDL
MODEL 4
REMARK VINA RESULT:      -4.7     21.285     23.074
REMARK  Name = 
REMARK  7 active torsions:
REMARK  status: ('A' for Active; 'I' for Inactive)
REMARK    1  A    between atoms: CG_2  and  CB_4
REMARK    2  A    between atoms: CB_4  and  CA_5
REMARK    3  A    between atoms: CA_5  and  N_6
REMARK    4  A    between atoms: CA_5  and  C_15
REMARK    5  A    between atoms: C_7  and  CA_9
REMARK    6  A    between atoms: CA_9  and  CB_11
REMARK    7  A    between atoms: CB_11  and  CG_12
REMARK                            x       y       z     vdW  Elec       q    Type
REMARK                         _______ _______ _______ _____ _____    ______ ____
ROOT
ATOM      6  N   LEU A   2      24.398  56.551  -6.210  0.00  0.00    +0.000 NA
ATOM      7  C   ASP A   1      24.999  55.332  -6.193  0.00  0.00    +0.000 C 
ATOM      8  O   ASP A   1      25.368  54.912  -5.121  0.00  0.00    +0.000 OA
ENDROOT
BRANCH   7   9
ATOM      9  CA  ASP A   1      26.028  55.429  -7.443  0.00  0.00    +0.000 C 
ATOM     10  N   ASP A   1      25.059  56.320  -8.314  0.00  0.00    +0.000 NA
BRANCH   9  11
ATOM     11  CB  ASP A   1      26.860  56.747  -6.920  0.00  0.00    +0.000 C 
BRANCH  11  12
ATOM     12  CG  ASP A   1      27.659  57.027  -8.157  0.00  0.00    +0.000 C 
ATOM     13  OD1 ASP A   1      27.825  58.189  -8.639  0.00  0.00    +0.000 OA
ATOM     14  OD2 ASP A   1      28.403  56.048  -8.818  0.00  0.00    +0.000 OA
ENDBRANCH  11  12
ENDBRANCH   9  11
ENDBRANCH   7   9
BRANCH   6   5
ATOM      5  CA  LEU A   2      23.869  57.371  -4.995  0.00  0.00    +0.000 C 
BRANCH   5  15
ATOM     15  C   LEU A   2      23.468  58.702  -5.825  0.00  0.00    +0.000 C 
ATOM     16  O   LEU A   2      24.595  59.086  -6.293  0.00  0.00    +0.000 OA
ATOM     17  OXT LEU A   2      22.632  58.316  -6.884  0.00  0.00    +0.000 OA
ENDBRANCH   5  15
BRANCH   5   4
ATOM      4  CB  LEU A   2      22.329  56.784  -5.081  0.00  0.00    +0.000 C 
BRANCH   4   2
ATOM      1  CD1 LEU A   2      22.341  54.719  -3.637  0.00  0.00    +0.000 C 
ATOM      2  CG  LEU A   2      22.175  56.206  -3.708  0.00  0.00    +0.000 C 
ATOM      3  CD2 LEU A   2      23.009  56.810  -2.645  0.00  0.00    +0.000 C 
ENDBRANCH   4   2
ENDBRANCH   5   4
ENDBRANCH   6   5
TORSDOF 7
ENDMDL
MODEL 5
REMARK VINA RESULT:      -4.7     21.144     22.689
REMARK  Name = 
REMARK  7 active torsions:
REMARK  status: ('A' for Active; 'I' for Inactive)
REMARK    1  A    between atoms: CG_2  and  CB_4
REMARK    2  A    between atoms: CB_4  and  CA_5
REMARK    3  A    between atoms: CA_5  and  N_6
REMARK    4  A    between atoms: CA_5  and  C_15
REMARK    5  A    between atoms: C_7  and  CA_9
REMARK    6  A    between atoms: CA_9  and  CB_11
REMARK    7  A    between atoms: CB_11  and  CG_12
REMARK                            x       y       z     vdW  Elec       q    Type
REMARK                         _______ _______ _______ _____ _____    ______ ____
ROOT
ATOM      6  N   LEU A   2      24.969  56.704  -6.285  0.00  0.00    +0.000 NA
ATOM      7  C   ASP A   1      25.371  55.808  -7.225  0.00  0.00    +0.000 C 
ATOM      8  O   ASP A   1      25.286  56.145  -8.383  0.00  0.00    +0.000 OA
ENDROOT
BRANCH   7   9
ATOM      9  CA  ASP A   1      24.691  54.429  -6.710  0.00  0.00    +0.000 C 
ATOM     10  N   ASP A   1      26.073  53.726  -6.416  0.00  0.00    +0.000 NA
BRANCH   9  11
ATOM     11  CB  ASP A   1      24.514  54.865  -5.135  0.00  0.00    +0.000 C 
BRANCH  11  12
ATOM     12  CG  ASP A   1      23.060  54.544  -4.963  0.00  0.00    +0.000 C 
ATOM     13  OD1 ASP A   1      22.220  54.553  -5.914  0.00  0.00    +0.000 OA
ATOM     14  OD2 ASP A   1      22.523  54.076  -3.763  0.00  0.00    +0.000 OA
ENDBRANCH  11  12
ENDBRANCH   9  11
ENDBRANCH   7   9
BRANCH   6   5
ATOM      5  CA  LEU A   2      24.664  58.221  -6.481  0.00  0.00    +0.000 C 
BRANCH   5  15
ATOM     15  C   LEU A   2      23.337  58.268  -5.556  0.00  0.00    +0.000 C 
ATOM     16  O   LEU A   2      23.665  59.103  -4.644  0.00  0.00    +0.000 OA
ATOM     17  OXT LEU A   2      22.293  58.806  -6.324  0.00  0.00    +0.000 OA
ENDBRANCH   5  15
BRANCH   5   4
ATOM      4  CB  LEU A   2      25.621  58.725  -5.234  0.00  0.00    +0.000 C 
BRANCH   4   2
ATOM      1  CD1 LEU A   2      26.865  59.596  -7.245  0.00  0.00    +0.000 C 
ATOM      2  CG  LEU A   2      26.936  58.873  -5.936  0.00  0.00    +0.000 C 
ATOM      3  CD2 LEU A   2      28.038  59.465  -5.146  0.00  0.00    +0.000 C 
ENDBRANCH   4   2
ENDBRANCH   5   4
ENDBRANCH   6   5
TORSDOF 7
ENDMDL
MODEL 6
REMARK VINA RESULT:      -4.7     21.405     22.597
REMARK  Name = 
REMARK  7 active torsions:
REMARK  status: ('A' for Active; 'I' for Inactive)
REMARK    1  A    between atoms: CG_2  and  CB_4
REMARK    2  A    between atoms: CB_4  and  CA_5
REMARK    3  A    between atoms: CA_5  and  N_6
REMARK    4  A    between atoms: CA_5  and  C_15
REMARK    5  A    between atoms: C_7  and  CA_9
REMARK    6  A    between atoms: CA_9  and  CB_11
REMARK    7  A    between atoms: CB_11  and  CG_12
REMARK                            x       y       z     vdW  Elec       q    Type
REMARK                         _______ _______ _______ _____ _____    ______ ____
ROOT
ATOM      6  N   LEU A   2      26.179  49.759   2.496  0.00  0.00    +0.000 NA
ATOM      7  C   ASP A   1      25.345  49.514   1.451  0.00  0.00    +0.000 C 
ATOM      8  O   ASP A   1      24.178  49.329   1.706  0.00  0.00    +0.000 OA
ENDROOT
BRANCH   7   9
ATOM      9  CA  ASP A   1      26.184  48.437   0.576  0.00  0.00    +0.000 C 
ATOM     10  N   ASP A   1      25.290  47.214   1.020  0.00  0.00    +0.000 NA
BRANCH   9  11
ATOM     11  CB  ASP A   1      25.344  48.613  -0.825  0.00  0.00    +0.000 C 
BRANCH  11  12
ATOM     12  CG  ASP A   1      26.430  48.263  -1.797  0.00  0.00    +0.000 C 
ATOM     13  OD1 ASP A   1      26.757  47.072  -2.087  0.00  0.00    +0.000 OA
ATOM     14  OD2 ASP A   1      27.093  49.218  -2.571  0.00  0.00    +0.000 OA
ENDBRANCH  11  12
ENDBRANCH   9  11
ENDBRANCH   7   9
BRANCH   6   5
ATOM      5  CA  LEU A   2      25.791  50.106   3.965  0.00  0.00    +0.000 C 
BRANCH   5  15
ATOM     15  C   LEU A   2      27.235  49.785   4.623  0.00  0.00    +0.000 C 
ATOM     16  O   LEU A   2      28.042  50.078   3.675  0.00  0.00    +0.000 OA
ATOM     17  OXT LEU A   2      27.431  50.674   5.691  0.00  0.00    +0.000 OA
ENDBRANCH   5  15
BRANCH   5   4
ATOM      4  CB  LEU A   2      26.144  51.713   3.835  0.00  0.00    +0.000 C 
BRANCH   4   2
ATOM      1  CD1 LEU A   2      24.140  52.504   5.142  0.00  0.00    +0.000 C 
ATOM      2  CG  LEU A   2      24.765  52.297   3.797  0.00  0.00    +0.000 C 
ATOM      3  CD2 LEU A   2      24.604  53.547   3.021  0.00  0.00    +0.000 C 
ENDBRANCH   4   2
ENDBRANCH   5   4
ENDBRANCH   6   5
TORSDOF 7
ENDMDL
MODEL 7
REMARK VINA RESULT:      -4.6     20.510     22.266
REMARK  Name = 
REMARK  7 active torsions:
REMARK  status: ('A' for Active; 'I' for Inactive)
REMARK    1  A    between atoms: CG_2  and  CB_4
REMARK    2  A    between atoms: CB_4  and  CA_5
REMARK    3  A    between atoms: CA_5  and  N_6
REMARK    4  A    between atoms: CA_5  and  C_15
REMARK    5  A    between atoms: C_7  and  CA_9
REMARK    6  A    between atoms: CA_9  and  CB_11
REMARK    7  A    between atoms: CB_11  and  CG_12
REMARK                            x       y       z     vdW  Elec       q    Type
REMARK                         _______ _______ _______ _____ _____    ______ ____
ROOT
ATOM      6  N   LEU A   2      24.057  56.797  -5.983  0.00  0.00    +0.000 NA
ATOM      7  C   ASP A   1      23.973  58.123  -6.270  0.00  0.00    +0.000 C 
ATOM      8  O   ASP A   1      24.982  58.778  -6.162  0.00  0.00    +0.000 OA
ENDROOT
BRANCH   7   9
ATOM      9  CA  ASP A   1      22.613  58.563  -5.504  0.00  0.00    +0.000 C 
ATOM     10  N   ASP A   1      21.920  57.157  -5.691  0.00  0.00    +0.000 NA
BRANCH   9  11
ATOM     11  CB  ASP A   1      23.104  58.181  -3.983  0.00  0.00    +0.000 C 
BRANCH  11  12
ATOM     12  CG  ASP A   1      21.883  58.612  -3.226  0.00  0.00    +0.000 C 
ATOM     13  OD1 ASP A   1      21.211  59.650  -3.509  0.00  0.00    +0.000 OA
ATOM     14  OD2 ASP A   1      21.300  57.838  -2.222  0.00  0.00    +0.000 OA
ENDBRANCH  11  12
ENDBRANCH   9  11
ENDBRANCH   7   9
BRANCH   6   5
ATOM      5  CA  LEU A   2      25.347  55.942  -5.793  0.00  0.00    +0.000 C 
BRANCH   5  15
ATOM     15  C   LEU A   2      24.603  54.570  -5.364  0.00  0.00    +0.000 C 
ATOM     16  O   LEU A   2      24.198  54.834  -4.179  0.00  0.00    +0.000 OA
ATOM     17  OXT LEU A   2      23.494  54.397  -6.206  0.00  0.00    +0.000 OA
ENDBRANCH   5  15
BRANCH   5   4
ATOM      4  CB  LEU A   2      25.441  55.465  -7.370  0.00  0.00    +0.000 C 
BRANCH   4   2
ATOM      1  CD1 LEU A   2      26.901  56.897  -8.843  0.00  0.00    +0.000 C 
ATOM      2  CG  LEU A   2      26.828  55.917  -7.713  0.00  0.00    +0.000 C 
ATOM      3  CD2 LEU A   2      27.641  56.445  -6.596  0.00  0.00    +0.000 C 
ENDBRANCH   4   2
ENDBRANCH   5   4
ENDBRANCH   6   5
TORSDOF 7
ENDMDL
MODEL 8
REMARK VINA RESULT:      -4.5     19.391     20.804
REMARK  Name = 
REMARK  7 active torsions:
REMARK  status: ('A' for Active; 'I' for Inactive)
REMARK    1  A    between atoms: CG_2  and  CB_4
REMARK    2  A    between atoms: CB_4  and  CA_5
REMARK    3  A    between atoms: CA_5  and  N_6
REMARK    4  A    between atoms: CA_5  and  C_15
REMARK    5  A    between atoms: C_7  and  CA_9
REMARK    6  A    between atoms: CA_9  and  CB_11
REMARK    7  A    between atoms: CB_11  and  CG_12
REMARK                            x       y       z     vdW  Elec       q    Type
REMARK                         _______ _______ _______ _____ _____    ______ ____
ROOT
ATOM      6  N   LEU A   2       6.169  53.349  20.560  0.00  0.00    +0.000 NA
ATOM      7  C   ASP A   1       6.866  52.183  20.549  0.00  0.00    +0.000 C 
ATOM      8  O   ASP A   1       8.071  52.258  20.497  0.00  0.00    +0.000 OA
ENDROOT
BRANCH   7   9
ATOM      9  CA  ASP A   1       6.044  51.293  19.471  0.00  0.00    +0.000 C 
ATOM     10  N   ASP A   1       4.708  52.116  19.642  0.00  0.00    +0.000 NA
BRANCH   9  11
ATOM     11  CB  ASP A   1       6.467  52.150  18.134  0.00  0.00    +0.000 C 
BRANCH  11  12
ATOM     12  CG  ASP A   1       6.270  51.084  17.098  0.00  0.00    +0.000 C 
ATOM     13  OD1 ASP A   1       6.152  49.851  17.371  0.00  0.00    +0.000 OA
ATOM     14  OD2 ASP A   1       6.066  51.368  15.747  0.00  0.00    +0.000 OA
ENDBRANCH  11  12
ENDBRANCH   9  11
ENDBRANCH   7   9
BRANCH   6   5
ATOM      5  CA  LEU A   2       6.721  54.789  20.791  0.00  0.00    +0.000 C 
BRANCH   5  15
ATOM     15  C   LEU A   2       5.397  55.581  20.301  0.00  0.00    +0.000 C 
ATOM     16  O   LEU A   2       5.698  56.800  20.544  0.00  0.00    +0.000 OA
ATOM     17  OXT LEU A   2       5.274  55.401  18.914  0.00  0.00    +0.000 OA
ENDBRANCH   5  15
BRANCH   5   4
ATOM      4  CB  LEU A   2       6.257  54.873  22.372  0.00  0.00    +0.000 C 
BRANCH   4   2
ATOM      1  CD1 LEU A   2       8.081  53.800  23.739  0.00  0.00    +0.000 C 
ATOM      2  CG  LEU A   2       7.586  55.030  23.044  0.00  0.00    +0.000 C 
ATOM      3  CD2 LEU A   2       8.686  55.556  22.205  0.00  0.00    +0.000 C 
ENDBRANCH   4   2
ENDBRANCH   5   4
ENDBRANCH   6   5
TORSDOF 7
ENDMDL
MODEL 9
REMARK VINA RESULT:      -4.4      7.501      9.087
REMARK  Name = 
REMARK  7 active torsions:
REMARK  status: ('A' for Active; 'I' for Inactive)
REMARK    1  A    between atoms: CG_2  and  CB_4
REMARK    2  A    between atoms: CB_4  and  CA_5
REMARK    3  A    between atoms: CA_5  and  N_6
REMARK    4  A    between atoms: CA_5  and  C_15
REMARK    5  A    between atoms: C_7  and  CA_9
REMARK    6  A    between atoms: CA_9  and  CB_11
REMARK    7  A    between atoms: CB_11  and  CG_12
REMARK                            x       y       z     vdW  Elec       q    Type
REMARK                         _______ _______ _______ _____ _____    ______ ____
ROOT
ATOM      6  N   LEU A   2      18.908  62.181  17.449  0.00  0.00    +0.000 NA
ATOM      7  C   ASP A   1      19.623  63.083  16.726  0.00  0.00    +0.000 C 
ATOM      8  O   ASP A   1      19.446  64.253  16.971  0.00  0.00    +0.000 OA
ENDROOT
BRANCH   7   9
ATOM      9  CA  ASP A   1      19.471  62.520  15.213  0.00  0.00    +0.000 C 
ATOM     10  N   ASP A   1      19.330  63.957  14.574  0.00  0.00    +0.000 NA
BRANCH   9  11
ATOM     11  CB  ASP A   1      21.075  62.459  14.857  0.00  0.00    +0.000 C 
BRANCH  11  12
ATOM     12  CG  ASP A   1      21.049  61.357  13.841  0.00  0.00    +0.000 C 
ATOM     13  OD1 ASP A   1      22.010  60.551  13.653  0.00  0.00    +0.000 OA
ATOM     14  OD2 ASP A   1      19.910  61.035  13.100  0.00  0.00    +0.000 OA
ENDBRANCH  11  12
ENDBRANCH   9  11
ENDBRANCH   7   9
BRANCH   6   5
ATOM      5  CA  LEU A   2      18.085  62.437  18.748  0.00  0.00    +0.000 C 
BRANCH   5  15
ATOM     15  C   LEU A   2      16.909  61.367  18.441  0.00  0.00    +0.000 C 
ATOM     16  O   LEU A   2      16.735  60.813  19.580  0.00  0.00    +0.000 OA
ATOM     17  OXT LEU A   2      15.754  62.082  18.091  0.00  0.00    +0.000 OA
ENDBRANCH   5  15
BRANCH   5   4
ATOM      4  CB  LEU A   2      18.916  61.346  19.666  0.00  0.00    +0.000 C 
BRANCH   4   2
ATOM      1  CD1 LEU A   2      19.330  62.590  21.818  0.00  0.00    +0.000 C 
ATOM      2  CG  LEU A   2      19.814  62.262  20.440  0.00  0.00    +0.000 C 
ATOM      3  CD2 LEU A   2      21.234  61.858  20.538  0.00  0.00    +0.000 C 
ENDBRANCH   4   2
ENDBRANCH   5   4
ENDBRANCH   6   5
TORSDOF 7
ENDMDL
MODEL 10
REMARK VINA RESULT:      -4.3     19.095     21.372
REMARK  Name = 
REMARK  7 active torsions:
REMARK  status: ('A' for Active; 'I' for Inactive)
REMARK    1  A    between atoms: CG_2  and  CB_4
REMARK    2  A    between atoms: CB_4  and  CA_5
REMARK    3  A    between atoms: CA_5  and  N_6
REMARK    4  A    between atoms: CA_5  and  C_15
REMARK    5  A    between atoms: C_7  and  CA_9
REMARK    6  A    between atoms: CA_9  and  CB_11
REMARK    7  A    between atoms: CB_11  and  CG_12
REMARK                            x       y       z     vdW  Elec       q    Type
REMARK                         _______ _______ _______ _____ _____    ______ ____
ROOT
ATOM      6  N   LEU A   2       5.860  54.879  22.968  0.00  0.00    +0.000 NA
ATOM      7  C   ASP A   1       6.262  53.725  23.563  0.00  0.00    +0.000 C 
ATOM      8  O   ASP A   1       5.516  53.233  24.376  0.00  0.00    +0.000 OA
ENDROOT
BRANCH   7   9
ATOM      9  CA  ASP A   1       7.806  54.044  23.942  0.00  0.00    +0.000 C 
ATOM     10  N   ASP A   1       8.370  52.778  23.185  0.00  0.00    +0.000 NA
BRANCH   9  11
ATOM     11  CB  ASP A   1       8.132  55.023  22.662  0.00  0.00    +0.000 C 
BRANCH  11  12
ATOM     12  CG  ASP A   1       9.394  55.656  23.166  0.00  0.00    +0.000 C 
ATOM     13  OD1 ASP A   1       9.748  55.648  24.384  0.00  0.00    +0.000 OA
ATOM     14  OD2 ASP A   1      10.361  56.199  22.318  0.00  0.00    +0.000 OA
ENDBRANCH  11  12
ENDBRANCH   9  11
ENDBRANCH   7   9
BRANCH   6   5
ATOM      5  CA  LEU A   2       4.438  55.518  22.988  0.00  0.00    +0.000 C 
BRANCH   5  15
ATOM     15  C   LEU A   2       4.840  56.847  23.820  0.00  0.00    +0.000 C 
ATOM     16  O   LEU A   2       4.174  57.760  23.220  0.00  0.00    +0.000 OA
ATOM     17  OXT LEU A   2       4.353  56.701  25.129  0.00  0.00    +0.000 OA
ENDBRANCH   5  15
BRANCH   5   4
ATOM      4  CB  LEU A   2       4.609  56.301  21.545  0.00  0.00    +0.000 C 
BRANCH   4   2
ATOM      1  CD1 LEU A   2       3.409  54.421  20.372  0.00  0.00    +0.000 C 
ATOM      2  CG  LEU A   2       4.703  55.136  20.607  0.00  0.00    +0.000 C 
ATOM      3  CD2 LEU A   2       5.324  55.404  19.291  0.00  0.00    +0.000 C 
ENDBRANCH   4   2
ENDBRANCH   5   4
ENDBRANCH   6   5
TORSDOF 7
ENDMDL
