MODEL 1
REMARK VINA RESULT:      -5.8      0.000      0.000
REMARK  Name = 
REMARK  7 active torsions:
REMARK  status: ('A' for Active; 'I' for Inactive)
REMARK    1  A    between atoms: CA_2  and  CB_3
REMARK    2  A    between atoms: CA_2  and  C_7
REMARK    3  A    between atoms: CB_3  and  CG_4
REMARK    4  A    between atoms: N_9  and  CA_10
REMARK    5  A    between atoms: CA_10  and  CB_11
REMARK    6  A    between atoms: CA_10  and  C_19
REMARK    7  A    between atoms: CB_11  and  CG_12
REMARK                            x       y       z     vdW  Elec       q    Type
REMARK                         _______ _______ _______ _____ _____    ______ ____
ROOT
ATOM     10  CA  TYR A   2       7.417  82.710  27.454  0.00  0.00    +0.000 C 
ENDROOT
BRANCH  10   9
ATOM      7  C   ASP A   1       7.174  81.481  29.612  0.00  0.00    +0.000 C 
ATOM      8  O   ASP A   1       8.076  80.748  29.150  0.00  0.00    +0.000 OA
ATOM      9  N   TYR A   2       6.676  82.616  28.876  0.00  0.00    +0.000 NA
BRANCH   7   2
ATOM      1  N   ASP A   1       5.590  81.820  31.344  0.00  0.00    +0.000 NA
ATOM      2  CA  ASP A   1       5.956  80.634  30.325  0.00  0.00    +0.000 C 
BRANCH   2   3
ATOM      3  CB  ASP A   1       4.845  81.190  29.203  0.00  0.00    +0.000 C 
BRANCH   3   4
ATOM      4  CG  ASP A   1       4.643  80.067  28.274  0.00  0.00    +0.000 C 
ATOM      5  OD1 ASP A   1       4.812  80.207  27.024  0.00  0.00    +0.000 OA
ATOM      6  OD2 ASP A   1       4.110  78.831  28.646  0.00  0.00    +0.000 OA
ENDBRANCH   3   4
ENDBRANCH   2   3
ENDBRANCH   7   2
ENDBRANCH  10   9
BRANCH  10  19
ATOM     19  C   TYR A   2       8.322  83.994  27.930  0.00  0.00    +0.000 C 
ATOM     20  O   TYR A   2       7.536  84.792  28.528  0.00  0.00    +0.000 OA
ATOM     21  OXT TYR A   2       9.570  83.715  28.391  0.00  0.00    +0.000 OA
ENDBRANCH  10  19
BRANCH  10  11
ATOM     11  CB  TYR A   2       6.226  83.693  26.804  0.00  0.00    +0.000 C 
BRANCH  11  12
ATOM     12  CG  TYR A   2       6.452  83.387  25.356  0.00  0.00    +0.000 A 
ATOM     13  CD1 TYR A   2       6.170  84.332  24.378  0.00  0.00    +0.000 A 
ATOM     14  CE1 TYR A   2       6.449  84.093  23.042  0.00  0.00    +0.000 A 
ATOM     15  CZ  TYR A   2       7.390  83.125  22.739  0.00  0.00    +0.000 A 
ATOM     16  OH  TYR A   2       8.325  83.292  21.718  0.00  0.00    +0.000 OA
ATOM     17  CE2 TYR A   2       7.504  82.114  23.660  0.00  0.00    +0.000 A 
ATOM     18  CD2 TYR A   2       6.923  82.164  24.916  0.00  0.00    +0.000 A 
ENDBRANCH  11  12
ENDBRANCH  10  11
TORSDOF 7
ENDMDL
MODEL 2
REMARK VINA RESULT:      -5.6     21.750     24.074
REMARK  Name = 
REMARK  7 active torsions:
REMARK  status: ('A' for Active; 'I' for Inactive)
REMARK    1  A    between atoms: CA_2  and  CB_3
REMARK    2  A    between atoms: CA_2  and  C_7
REMARK    3  A    between atoms: CB_3  and  CG_4
REMARK    4  A    between atoms: N_9  and  CA_10
REMARK    5  A    between atoms: CA_10  and  CB_11
REMARK    6  A    between atoms: CA_10  and  C_19
REMARK    7  A    between atoms: CB_11  and  CG_12
REMARK                            x       y       z     vdW  Elec       q    Type
REMARK                         _______ _______ _______ _____ _____    ______ ____
ROOT
ATOM     10  CA  TYR A   2      19.355  66.182  13.367  0.00  0.00    +0.000 C 
ENDROOT
BRANCH  10   9
ATOM      7  C   ASP A   1      17.559  66.231  11.636  0.00  0.00    +0.000 C 
ATOM      8  O   ASP A   1      18.270  67.113  11.106  0.00  0.00    +0.000 OA
ATOM      9  N   TYR A   2      17.960  65.573  12.854  0.00  0.00    +0.000 NA
BRANCH   7   2
ATOM      1  N   ASP A   1      16.176  67.944  12.517  0.00  0.00    +0.000 NA
ATOM      2  CA  ASP A   1      15.958  66.612  11.647  0.00  0.00    +0.000 C 
BRANCH   2   3
ATOM      3  CB  ASP A   1      16.100  67.465  10.215  0.00  0.00    +0.000 C 
BRANCH   3   4
ATOM      4  CG  ASP A   1      15.031  66.944   9.349  0.00  0.00    +0.000 C 
ATOM      5  OD1 ASP A   1      15.238  65.976   8.556  0.00  0.00    +0.000 OA
ATOM      6  OD2 ASP A   1      13.779  67.547   9.204  0.00  0.00    +0.000 OA
ENDBRANCH   3   4
ENDBRANCH   2   3
ENDBRANCH   7   2
ENDBRANCH  10   9
BRANCH  10  19
ATOM     19  C   TYR A   2      19.759  64.792  14.141  0.00  0.00    +0.000 C 
ATOM     20  O   TYR A   2      21.020  64.813  14.293  0.00  0.00    +0.000 OA
ATOM     21  OXT TYR A   2      18.912  64.378  15.121  0.00  0.00    +0.000 OA
ENDBRANCH  10  19
BRANCH  10  11
ATOM     11  CB  TYR A   2      18.659  66.835  14.745  0.00  0.00    +0.000 C 
BRANCH  11  12
ATOM     12  CG  TYR A   2      19.497  68.071  14.851  0.00  0.00    +0.000 A 
ATOM     13  CD1 TYR A   2      19.522  69.003  13.820  0.00  0.00    +0.000 A 
ATOM     14  CE1 TYR A   2      20.228  70.189  13.936  0.00  0.00    +0.000 A 
ATOM     15  CZ  TYR A   2      20.534  70.639  15.208  0.00  0.00    +0.000 A 
ATOM     16  OH  TYR A   2      20.456  71.988  15.558  0.00  0.00    +0.000 OA
ATOM     17  CE2 TYR A   2      20.671  69.657  16.157  0.00  0.00    +0.000 A 
ATOM     18  CD2 TYR A   2      20.294  68.342  15.947  0.00  0.00    +0.000 A 
ENDBRANCH  11  12
ENDBRANCH  10  11
TORSDOF 7
ENDMDL
MODEL 3
REMARK VINA RESULT:      -5.6     30.620     32.782
REMARK  Name = 
REMARK  7 active torsions:
REMARK  status: ('A' for Active; 'I' for Inactive)
REMARK    1  A    between atoms: CA_2  and  CB_3
REMARK    2  A    between atoms: CA_2  and  C_7
REMARK    3  A    between atoms: CB_3  and  CG_4
REMARK    4  A    between atoms: N_9  and  CA_10
REMARK    5  A    between atoms: CA_10  and  CB_11
REMARK    6  A    between atoms: CA_10  and  C_19
REMARK    7  A    between atoms: CB_11  and  CG_12
REMARK                            x       y       z     vdW  Elec       q    Type
REMARK                         _______ _______ _______ _____ _____    ______ ____
ROOT
ATOM     10  CA  TYR A   2      10.527  57.627   4.424  0.00  0.00    +0.000 C 
ENDROOT
BRANCH  10   9
ATOM      7  C   ASP A   1       8.166  57.881   5.190  0.00  0.00    +0.000 C 
ATOM      8  O   ASP A   1       8.436  59.103   5.204  0.00  0.00    +0.000 OA
ATOM      9  N   TYR A   2       9.139  56.900   4.781  0.00  0.00    +0.000 NA
BRANCH   7   2
ATOM      1  N   ASP A   1       8.112  55.995   6.626  0.00  0.00    +0.000 NA
ATOM      2  CA  ASP A   1       7.325  57.391   6.517  0.00  0.00    +0.000 C 
BRANCH   2   3
ATOM      3  CB  ASP A   1       8.412  58.140   7.545  0.00  0.00    +0.000 C 
BRANCH   3   4
ATOM      4  CG  ASP A   1       7.650  58.423   8.771  0.00  0.00    +0.000 C 
ATOM      5  OD1 ASP A   1       7.624  57.600   9.736  0.00  0.00    +0.000 OA
ATOM      6  OD2 ASP A   1       6.783  59.508   8.919  0.00  0.00    +0.000 OA
ENDBRANCH   3   4
ENDBRANCH   2   3
ENDBRANCH   7   2
ENDBRANCH  10   9
BRANCH  10  19
ATOM     19  C   TYR A   2      10.575  56.957   2.927  0.00  0.00    +0.000 C 
ATOM     20  O   TYR A   2      11.798  56.735   2.666  0.00  0.00    +0.000 OA
ATOM     21  OXT TYR A   2       9.593  56.064   2.632  0.00  0.00    +0.000 OA
ENDBRANCH  10  19
BRANCH  10  11
ATOM     11  CB  TYR A   2      11.441  56.390   5.090  0.00  0.00    +0.000 C 
BRANCH  11  12
ATOM     12  CG  TYR A   2      11.784  57.045   6.392  0.00  0.00    +0.000 A 
ATOM     13  CD1 TYR A   2      11.534  56.402   7.599  0.00  0.00    +0.000 A 
ATOM     14  CE1 TYR A   2      11.919  56.960   8.806  0.00  0.00    +0.000 A 
ATOM     15  CZ  TYR A   2      12.920  57.914   8.790  0.00  0.00    +0.000 A 
ATOM     16  OH  TYR A   2      13.919  57.960   9.763  0.00  0.00    +0.000 OA
ATOM     17  CE2 TYR A   2      13.011  58.645   7.632  0.00  0.00    +0.000 A 
ATOM     18  CD2 TYR A   2      12.339  58.309   6.469  0.00  0.00    +0.000 A 
ENDBRANCH  11  12
ENDBRANCH  10  11
TORSDOF 7
ENDMDL
MODEL 4
REMARK VINA RESULT:      -5.5      1.662      2.284
REMARK  Name = 
REMARK  7 active torsions:
REMARK  status: ('A' for Active; 'I' for Inactive)
REMARK    1  A    between atoms: CA_2  and  CB_3
REMARK    2  A    between atoms: CA_2  and  C_7
REMARK    3  A    between atoms: CB_3  and  CG_4
REMARK    4  A    between atoms: N_9  and  CA_10
REMARK    5  A    between atoms: CA_10  and  CB_11
REMARK    6  A    between atoms: CA_10  and  C_19
REMARK    7  A    between atoms: CB_11  and  CG_12
REMARK                            x       y       z     vdW  Elec       q    Type
REMARK                         _______ _______ _______ _____ _____    ______ ____
ROOT
ATOM     10  CA  TYR A   2       7.680  82.844  27.163  0.00  0.00    +0.000 C 
ENDROOT
BRANCH  10   9
ATOM      7  C   ASP A   1       6.665  81.763  29.169  0.00  0.00    +0.000 C 
ATOM      8  O   ASP A   1       7.478  80.843  28.927  0.00  0.00    +0.000 OA
ATOM      9  N   TYR A   2       6.611  82.952  28.357  0.00  0.00    +0.000 NA
BRANCH   7   2
ATOM      1  N   ASP A   1       5.051  80.306  28.221  0.00  0.00    +0.000 NA
ATOM      2  CA  ASP A   1       5.160  81.211  29.544  0.00  0.00    +0.000 C 
BRANCH   2   3
ATOM      3  CB  ASP A   1       5.792  79.936  30.424  0.00  0.00    +0.000 C 
BRANCH   3   4
ATOM      4  CG  ASP A   1       5.069  79.958  31.705  0.00  0.00    +0.000 C 
ATOM      5  OD1 ASP A   1       4.555  78.905  32.191  0.00  0.00    +0.000 OA
ATOM      6  OD2 ASP A   1       4.750  81.126  32.402  0.00  0.00    +0.000 OA
ENDBRANCH   3   4
ENDBRANCH   2   3
ENDBRANCH   7   2
ENDBRANCH  10   9
BRANCH  10  19
ATOM     19  C   TYR A   2       8.673  83.952  27.855  0.00  0.00    +0.000 C 
ATOM     20  O   TYR A   2       7.944  84.935  28.193  0.00  0.00    +0.000 OA
ATOM     21  OXT TYR A   2       9.657  83.463  28.656  0.00  0.00    +0.000 OA
ENDBRANCH  10  19
BRANCH  10  11
ATOM     11  CB  TYR A   2       6.896  84.008  26.246  0.00  0.00    +0.000 C 
BRANCH  11  12
ATOM     12  CG  TYR A   2       7.466  83.655  24.907  0.00  0.00    +0.000 A 
ATOM     13  CD1 TYR A   2       7.352  82.364  24.405  0.00  0.00    +0.000 A 
ATOM     14  CE1 TYR A   2       7.802  82.041  23.135  0.00  0.00    +0.000 A 
ATOM     15  CZ  TYR A   2       7.954  83.069  22.221  0.00  0.00    +0.000 A 
ATOM     16  OH  TYR A   2       7.594  82.929  20.880  0.00  0.00    +0.000 OA
ATOM     17  CE2 TYR A   2       8.241  84.296  22.764  0.00  0.00    +0.000 A 
ATOM     18  CD2 TYR A   2       8.142  84.567  24.118  0.00  0.00    +0.000 A 
ENDBRANCH  11  12
ENDBRANCH  10  11
TORSDOF 7
ENDMDL
MODEL 5
REMARK VINA RESULT:      -5.5     43.378     45.684
REMARK  Name = 
REMARK  7 active torsions:
REMARK  status: ('A' for Active; 'I' for Inactive)
REMARK    1  A    between atoms: CA_2  and  CB_3
REMARK    2  A    between atoms: CA_2  and  C_7
REMARK    3  A    between atoms: CB_3  and  CG_4
REMARK    4  A    between atoms: N_9  and  CA_10
REMARK    5  A    between atoms: CA_10  and  CB_11
REMARK    6  A    between atoms: CA_10  and  C_19
REMARK    7  A    between atoms: CB_11  and  CG_12
REMARK                            x       y       z     vdW  Elec       q    Type
REMARK                         _______ _______ _______ _____ _____    ______ ____
ROOT
ATOM     10  CA  TYR A   2      23.940  55.973  -4.070  0.00  0.00    +0.000 C 
ENDROOT
BRANCH  10   9
ATOM      7  C   ASP A   1      25.492  54.467  -5.315  0.00  0.00    +0.000 C 
ATOM      8  O   ASP A   1      26.355  54.917  -4.530  0.00  0.00    +0.000 OA
ATOM      9  N   TYR A   2      24.114  54.882  -5.236  0.00  0.00    +0.000 NA
BRANCH   7   2
ATOM      1  N   ASP A   1      24.592  54.813  -7.482  0.00  0.00    +0.000 NA
ATOM      2  CA  ASP A   1      26.016  54.386  -6.873  0.00  0.00    +0.000 C 
BRANCH   2   3
ATOM      3  CB  ASP A   1      26.532  55.977  -6.836  0.00  0.00    +0.000 C 
BRANCH   3   4
ATOM      4  CG  ASP A   1      27.280  56.168  -8.087  0.00  0.00    +0.000 C 
ATOM      5  OD1 ASP A   1      26.882  56.981  -8.976  0.00  0.00    +0.000 OA
ATOM      6  OD2 ASP A   1      28.370  55.385  -8.474  0.00  0.00    +0.000 OA
ENDBRANCH   3   4
ENDBRANCH   2   3
ENDBRANCH   7   2
ENDBRANCH  10   9
BRANCH  10  19
ATOM     19  C   TYR A   2      22.564  55.269  -3.518  0.00  0.00    +0.000 C 
ATOM     20  O   TYR A   2      22.358  54.250  -4.246  0.00  0.00    +0.000 OA
ATOM     21  OXT TYR A   2      22.396  55.249  -2.168  0.00  0.00    +0.000 OA
ENDBRANCH  10  19
BRANCH  10  11
ATOM     11  CB  TYR A   2      23.095  57.023  -5.065  0.00  0.00    +0.000 C 
BRANCH  11  12
ATOM     12  CG  TYR A   2      24.092  58.139  -5.107  0.00  0.00    +0.000 A 
ATOM     13  CD1 TYR A   2      24.826  58.479  -3.977  0.00  0.00    +0.000 A 
ATOM     14  CE1 TYR A   2      25.809  59.454  -4.021  0.00  0.00    +0.000 A 
ATOM     15  CZ  TYR A   2      26.355  59.768  -5.253  0.00  0.00    +0.000 A 
ATOM     16  OH  TYR A   2      27.719  60.012  -5.421  0.00  0.00    +0.000 OA
ATOM     17  CE2 TYR A   2      25.522  59.578  -6.327  0.00  0.00    +0.000 A 
ATOM     18  CD2 TYR A   2      24.321  58.894  -6.242  0.00  0.00    +0.000 A 
ENDBRANCH  11  12
ENDBRANCH  10  11
TORSDOF 7
ENDMDL
MODEL 6
REMARK VINA RESULT:      -5.5     30.257     31.953
REMARK  Name = 
REMARK  7 active torsions:
REMARK  status: ('A' for Active; 'I' for Inactive)
REMARK    1  A    between atoms: CA_2  and  CB_3
REMARK    2  A    between atoms: CA_2  and  C_7
REMARK    3  A    between atoms: CB_3  and  CG_4
REMARK    4  A    between atoms: N_9  and  CA_10
REMARK    5  A    between atoms: CA_10  and  CB_11
REMARK    6  A    between atoms: CA_10  and  C_19
REMARK    7  A    between atoms: CB_11  and  CG_12
REMARK                            x       y       z     vdW  Elec       q    Type
REMARK                         _______ _______ _______ _____ _____    ______ ____
ROOT
ATOM     10  CA  TYR A   2      12.739  58.085   7.209  0.00  0.00    +0.000 C 
ENDROOT
BRANCH  10   9
ATOM      7  C   ASP A   1      10.855  56.756   8.162  0.00  0.00    +0.000 C 
ATOM      8  O   ASP A   1      11.461  55.780   7.669  0.00  0.00    +0.000 OA
ATOM      9  N   TYR A   2      11.373  58.096   8.054  0.00  0.00    +0.000 NA
BRANCH   7   2
ATOM      1  N   ASP A   1       8.925  55.968   9.293  0.00  0.00    +0.000 NA
ATOM      2  CA  ASP A   1       9.231  56.707   7.900  0.00  0.00    +0.000 C 
BRANCH   2   3
ATOM      3  CB  ASP A   1       9.021  58.214   8.597  0.00  0.00    +0.000 C 
BRANCH   3   4
ATOM      4  CG  ASP A   1       7.714  58.682   8.112  0.00  0.00    +0.000 C 
ATOM      5  OD1 ASP A   1       6.999  57.967   7.346  0.00  0.00    +0.000 OA
ATOM      6  OD2 ASP A   1       7.226  59.976   8.309  0.00  0.00    +0.000 OA
ENDBRANCH   3   4
ENDBRANCH   2   3
ENDBRANCH   7   2
ENDBRANCH  10   9
BRANCH  10  19
ATOM     19  C   TYR A   2      13.533  58.965   8.344  0.00  0.00    +0.000 C 
ATOM     20  O   TYR A   2      13.783  58.177   9.307  0.00  0.00    +0.000 OA
ATOM     21  OXT TYR A   2      14.442  59.865   7.883  0.00  0.00    +0.000 OA
ENDBRANCH  10  19
BRANCH  10  11
ATOM     11  CB  TYR A   2      12.310  59.452   6.339  0.00  0.00    +0.000 C 
BRANCH  11  12
ATOM     12  CG  TYR A   2      11.349  58.815   5.384  0.00  0.00    +0.000 A 
ATOM     13  CD1 TYR A   2      11.678  57.635   4.728  0.00  0.00    +0.000 A 
ATOM     14  CE1 TYR A   2      10.770  56.991   3.904  0.00  0.00    +0.000 A 
ATOM     15  CZ  TYR A   2       9.426  57.269   4.078  0.00  0.00    +0.000 A 
ATOM     16  OH  TYR A   2       8.447  56.278   4.008  0.00  0.00    +0.000 OA
ATOM     17  CE2 TYR A   2       9.147  58.521   4.567  0.00  0.00    +0.000 A 
ATOM     18  CD2 TYR A   2      10.114  59.362   5.089  0.00  0.00    +0.000 A 
ENDBRANCH  11  12
ENDBRANCH  10  11
TORSDOF 7
ENDMDL
MODEL 7
REMARK VINA RESULT:      -5.4     53.179     55.624
REMARK  Name = 
REMARK  7 active torsions:
REMARK  status: ('A' for Active; 'I' for Inactive)
REMARK    1  A    between atoms: CA_2  and  CB_3
REMARK    2  A    between atoms: CA_2  and  C_7
REMARK    3  A    between atoms: CB_3  and  CG_4
REMARK    4  A    between atoms: N_9  and  CA_10
REMARK    5  A    between atoms: CA_10  and  CB_11
REMARK    6  A    between atoms: CA_10  and  C_19
REMARK    7  A    between atoms: CB_11  and  CG_12
REMARK                            x       y       z     vdW  Elec       q    Type
REMARK                         _______ _______ _______ _____ _____    ______ ____
ROOT
ATOM     10  CA  TYR A   2       6.310  46.882 -12.796  0.00  0.00    +0.000 C 
ENDROOT
BRANCH  10   9
ATOM      7  C   ASP A   1       4.865  46.781 -14.826  0.00  0.00    +0.000 C 
ATOM      8  O   ASP A   1       4.279  45.864 -14.209  0.00  0.00    +0.000 OA
ATOM      9  N   TYR A   2       5.978  47.487 -14.246  0.00  0.00    +0.000 NA
BRANCH   7   2
ATOM      1  N   ASP A   1       6.623  47.013 -16.402  0.00  0.00    +0.000 NA
ATOM      2  CA  ASP A   1       5.128  46.426 -16.412  0.00  0.00    +0.000 C 
BRANCH   2   3
ATOM      3  CB  ASP A   1       5.675  44.892 -16.030  0.00  0.00    +0.000 C 
BRANCH   3   4
ATOM      4  CG  ASP A   1       6.009  44.270 -17.321  0.00  0.00    +0.000 C 
ATOM      5  OD1 ASP A   1       5.107  43.975 -18.163  0.00  0.00    +0.000 OA
ATOM      6  OD2 ASP A   1       7.284  43.813 -17.662  0.00  0.00    +0.000 OA
ENDBRANCH   3   4
ENDBRANCH   2   3
ENDBRANCH   7   2
ENDBRANCH  10   9
BRANCH  10  19
ATOM     19  C   TYR A   2       6.275  48.362 -12.089  0.00  0.00    +0.000 C 
ATOM     20  O   TYR A   2       6.642  48.200 -10.884  0.00  0.00    +0.000 OA
ATOM     21  OXT TYR A   2       6.704  49.405 -12.849  0.00  0.00    +0.000 OA
ENDBRANCH  10  19
BRANCH  10  11
ATOM     11  CB  TYR A   2       7.965  46.959 -13.051  0.00  0.00    +0.000 C 
BRANCH  11  12
ATOM     12  CG  TYR A   2       8.216  45.508 -13.320  0.00  0.00    +0.000 A 
ATOM     13  CD1 TYR A   2       7.453  44.528 -12.697  0.00  0.00    +0.000 A 
ATOM     14  CE1 TYR A   2       7.619  43.186 -12.996  0.00  0.00    +0.000 A 
ATOM     15  CZ  TYR A   2       8.212  42.859 -14.203  0.00  0.00    +0.000 A 
ATOM     16  OH  TYR A   2       7.762  41.798 -14.989  0.00  0.00    +0.000 OA
ATOM     17  CE2 TYR A   2       9.096  43.789 -14.689  0.00  0.00    +0.000 A 
ATOM     18  CD2 TYR A   2       9.213  45.067 -14.169  0.00  0.00    +0.000 A 
ENDBRANCH  11  12
ENDBRANCH  10  11
TORSDOF 7
ENDMDL
MODEL 8
REMARK VINA RESULT:      -5.4     55.035     58.169
REMARK  Name = 
REMARK  7 active torsions:
REMARK  status: ('A' for Active; 'I' for Inactive)
REMARK    1  A    between atoms: CA_2  and  CB_3
REMARK    2  A    between atoms: CA_2  and  C_7
REMARK    3  A    between atoms: CB_3  and  CG_4
REMARK    4  A    between atoms: N_9  and  CA_10
REMARK    5  A    between atoms: CA_10  and  CB_11
REMARK    6  A    between atoms: CA_10  and  C_19
REMARK    7  A    between atoms: CB_11  and  CG_12
REMARK                            x       y       z     vdW  Elec       q    Type
REMARK                         _______ _______ _______ _____ _____    ______ ____
ROOT
ATOM     10  CA  TYR A   2      29.100  52.597 -16.994  0.00  0.00    +0.000 C 
ENDROOT
BRANCH  10   9
ATOM      7  C   ASP A   1      29.832  53.586 -19.165  0.00  0.00    +0.000 C 
ATOM      8  O   ASP A   1      29.568  54.676 -18.612  0.00  0.00    +0.000 OA
ATOM      9  N   TYR A   2      29.674  52.333 -18.471  0.00  0.00    +0.000 NA
BRANCH   7   2
ATOM      1  N   ASP A   1      27.738  53.565 -20.279  0.00  0.00    +0.000 NA
ATOM      2  CA  ASP A   1      29.283  53.499 -20.714  0.00  0.00    +0.000 C 
BRANCH   2   3
ATOM      3  CB  ASP A   1      29.356  55.162 -20.887  0.00  0.00    +0.000 C 
BRANCH   3   4
ATOM      4  CG  ASP A   1      30.348  55.395 -21.948  0.00  0.00    +0.000 C 
ATOM      5  OD1 ASP A   1      31.226  54.524 -22.233  0.00  0.00    +0.000 OA
ATOM      6  OD2 ASP A   1      30.515  56.615 -22.607  0.00  0.00    +0.000 OA
ENDBRANCH   3   4
ENDBRANCH   2   3
ENDBRANCH   7   2
ENDBRANCH  10   9
BRANCH  10  19
ATOM     19  C   TYR A   2      30.296  51.718 -16.294  0.00  0.00    +0.000 C 
ATOM     20  O   TYR A   2      30.504  50.719 -17.049  0.00  0.00    +0.000 OA
ATOM     21  OXT TYR A   2      31.308  52.423 -15.721  0.00  0.00    +0.000 OA
ENDBRANCH  10  19
BRANCH  10  11
ATOM     11  CB  TYR A   2      28.070  51.277 -17.068  0.00  0.00    +0.000 C 
BRANCH  11  12
ATOM     12  CG  TYR A   2      27.000  51.780 -16.150  0.00  0.00    +0.000 A 
ATOM     13  CD1 TYR A   2      26.063  52.708 -16.590  0.00  0.00    +0.000 A 
ATOM     14  CE1 TYR A   2      25.021  53.122 -15.778  0.00  0.00    +0.000 A 
ATOM     15  CZ  TYR A   2      24.659  52.306 -14.720  0.00  0.00    +0.000 A 
ATOM     16  OH  TYR A   2      23.326  52.090 -14.370  0.00  0.00    +0.000 OA
ATOM     17  CE2 TYR A   2      25.671  51.534 -14.206  0.00  0.00    +0.000 A 
ATOM     18  CD2 TYR A   2      26.896  51.376 -14.832  0.00  0.00    +0.000 A 
ENDBRANCH  11  12
ENDBRANCH  10  11
TORSDOF 7
ENDMDL
MODEL 9
REMARK VINA RESULT:      -5.3     22.691     24.439
REMARK  Name = 
REMARK  7 active torsions:
REMARK  status: ('A' for Active; 'I' for Inactive)
REMARK    1  A    between atoms: CA_2  and  CB_3
REMARK    2  A    between atoms: CA_2  and  C_7
REMARK    3  A    between atoms: CB_3  and  CG_4
REMARK    4  A    between atoms: N_9  and  CA_10
REMARK    5  A    between atoms: CA_10  and  CB_11
REMARK    6  A    between atoms: CA_10  and  C_19
REMARK    7  A    between atoms: CB_11  and  CG_12
REMARK                            x       y       z     vdW  Elec       q    Type
REMARK                         _______ _______ _______ _____ _____    ______ ____
ROOT
ATOM     10  CA  TYR A   2      17.687  68.358  12.371  0.00  0.00    +0.000 C 
ENDROOT
BRANCH  10   9
ATOM      7  C   ASP A   1      18.396  66.763  14.153  0.00  0.00    +0.000 C 
ATOM      8  O   ASP A   1      18.200  67.731  14.920  0.00  0.00    +0.000 OA
ATOM      9  N   TYR A   2      18.163  66.867  12.735  0.00  0.00    +0.000 NA
BRANCH   7   2
ATOM      1  N   ASP A   1      19.020  64.611  14.932  0.00  0.00    +0.000 NA
ATOM      2  CA  ASP A   1      19.788  65.949  14.484  0.00  0.00    +0.000 C 
BRANCH   2   3
ATOM      3  CB  ASP A   1      19.908  65.410  12.905  0.00  0.00    +0.000 C 
BRANCH   3   4
ATOM      4  CG  ASP A   1      21.338  65.132  12.701  0.00  0.00    +0.000 C 
ATOM      5  OD1 ASP A   1      22.224  65.658  13.442  0.00  0.00    +0.000 OA
ATOM      6  OD2 ASP A   1      21.849  64.420  11.614  0.00  0.00    +0.000 OA
ENDBRANCH   3   4
ENDBRANCH   2   3
ENDBRANCH   7   2
ENDBRANCH  10   9
BRANCH  10  19
ATOM     19  C   TYR A   2      16.605  67.818  11.261  0.00  0.00    +0.000 C 
ATOM     20  O   TYR A   2      15.629  67.331  11.910  0.00  0.00    +0.000 OA
ATOM     21  OXT TYR A   2      16.434  68.594  10.158  0.00  0.00    +0.000 OA
ENDBRANCH  10  19
BRANCH  10  11
ATOM     11  CB  TYR A   2      18.889  68.549  11.218  0.00  0.00    +0.000 C 
BRANCH  11  12
ATOM     12  CG  TYR A   2      19.915  69.220  12.077  0.00  0.00    +0.000 A 
ATOM     13  CD1 TYR A   2      19.560  70.263  12.924  0.00  0.00    +0.000 A 
ATOM     14  CE1 TYR A   2      20.481  70.840  13.783  0.00  0.00    +0.000 A 
ATOM     15  CZ  TYR A   2      21.606  70.107  14.114  0.00  0.00    +0.000 A 
ATOM     16  OH  TYR A   2      22.130  70.093  15.407  0.00  0.00    +0.000 OA
ATOM     17  CE2 TYR A   2      22.019  69.209  13.162  0.00  0.00    +0.000 A 
ATOM     18  CD2 TYR A   2      21.250  68.863  12.063  0.00  0.00    +0.000 A 
ENDBRANCH  11  12
ENDBRANCH  10  11
TORSDOF 7
ENDMDL
MODEL 10
REMARK VINA RESULT:      -5.3     37.680     40.626
REMARK  Name = 
REMARK  7 active torsions:
REMARK  status: ('A' for Active; 'I' for Inactive)
REMARK    1  A    between atoms: CA_2  and  CB_3
REMARK    2  A    between atoms: CA_2  and  C_7
REMARK    3  A    between atoms: CB_3  and  CG_4
REMARK    4  A    between atoms: N_9  and  CA_10
REMARK    5  A    between atoms: CA_10  and  CB_11
REMARK    6  A    between atoms: CA_10  and  C_19
REMARK    7  A    between atoms: CB_11  and  CG_12
REMARK                            x       y       z     vdW  Elec       q    Type
REMARK                         _______ _______ _______ _____ _____    ______ ____
ROOT
ATOM     10  CA  TYR A   2      16.893  67.438 -10.495  0.00  0.00    +0.000 C 
ENDROOT
BRANCH  10   9
ATOM      7  C   ASP A   1      18.409  65.597  -9.762  0.00  0.00    +0.000 C 
ATOM      8  O   ASP A   1      17.360  65.084  -9.313  0.00  0.00    +0.000 OA
ATOM      9  N   TYR A   2      18.390  66.858 -10.458  0.00  0.00    +0.000 NA
BRANCH   7   2
ATOM      1  N   ASP A   1      20.241  66.949  -9.100  0.00  0.00    +0.000 NA
ATOM      2  CA  ASP A   1      19.677  65.494  -8.718  0.00  0.00    +0.000 C 
BRANCH   2   3
ATOM      3  CB  ASP A   1      18.762  66.124  -7.466  0.00  0.00    +0.000 C 
BRANCH   3   4
ATOM      4  CG  ASP A   1      19.575  65.923  -6.257  0.00  0.00    +0.000 C 
ATOM      5  OD1 ASP A   1      20.071  66.904  -5.625  0.00  0.00    +0.000 OA
ATOM      6  OD2 ASP A   1      19.999  64.673  -5.800  0.00  0.00    +0.000 OA
ENDBRANCH   3   4
ENDBRANCH   2   3
ENDBRANCH   7   2
ENDBRANCH  10   9
BRANCH  10  19
ATOM     19  C   TYR A   2      16.697  67.032 -12.073  0.00  0.00    +0.000 C 
ATOM     20  O   TYR A   2      15.645  67.620 -12.473  0.00  0.00    +0.000 OA
ATOM     21  OXT TYR A   2      17.828  66.968 -12.825  0.00  0.00    +0.000 OA
ENDBRANCH  10  19
BRANCH  10  11
ATOM     11  CB  TYR A   2      17.412  68.985 -10.878  0.00  0.00    +0.000 C 
BRANCH  11  12
ATOM     12  CG  TYR A   2      17.220  69.621  -9.537  0.00  0.00    +0.000 A 
ATOM     13  CD1 TYR A   2      17.676  70.911  -9.291  0.00  0.00    +0.000 A 
ATOM     14  CE1 TYR A   2      17.436  71.542  -8.082  0.00  0.00    +0.000 A 
ATOM     15  CZ  TYR A   2      16.390  71.078  -7.305  0.00  0.00    +0.000 A 
ATOM     16  OH  TYR A   2      15.538  71.941  -6.613  0.00  0.00    +0.000 OA
ATOM     17  CE2 TYR A   2      16.093  69.747  -7.459  0.00  0.00    +0.000 A 
ATOM     18  CD2 TYR A   2      16.611  68.969  -8.481  0.00  0.00    +0.000 A 
ENDBRANCH  11  12
ENDBRANCH  10  11
TORSDOF 7
ENDMDL
