MODEL 1
REMARK VINA RESULT:      -4.5      0.000      0.000
REMARK  Name = 
REMARK  3 active torsions:
REMARK  status: ('A' for Active; 'I' for Inactive)
REMARK    1  A    between atoms: CA_2  and  C_3
REMARK    2  A    between atoms: CA_2  and  C_8
REMARK    3  A    between atoms: C_3  and  C_4
REMARK                            x       y       z     vdW  Elec       q    Type
REMARK                         _______ _______ _______ _____ _____    ______ ____
ROOT
ATOM      1  N   UNL     1      18.853  63.560  15.509  0.00  0.00    +0.000 NA
ATOM      2  CA  UNL     1      19.359  62.312  16.332  0.00  0.00    +0.000 C 
ENDROOT
BRANCH   2   8
ATOM      8  C   UNL     1      19.806  61.493  15.013  0.00  0.00    +0.000 C 
ATOM      9  O   UNL     1      19.101  61.716  13.980  0.00  0.00    +0.000 OA
ATOM     10  OXT UNL     1      21.134  61.880  14.760  0.00  0.00    +0.000 OA
ENDBRANCH   2   8
BRANCH   2   3
ATOM      3  C   UNL     1      17.844  61.671  16.345  0.00  0.00    +0.000 C 
BRANCH   3   4
ATOM      4  C   UNL     1      17.587  61.169  17.693  0.00  0.00    +0.000 C 
ATOM      5  O   UNL     1      18.593  60.342  18.222  0.00  0.00    +0.000 OA
ATOM      6  N   UNL     1      16.391  60.977  18.114  0.00  0.00    +0.000 NA
ATOM      7  O   UNL     1      15.980  59.921  18.877  0.00  0.00    +0.000 OA
ENDBRANCH   3   4
ENDBRANCH   2   3
TORSDOF 3
ENDMDL
MODEL 2
REMARK VINA RESULT:      -4.3     22.465     24.418
REMARK  Name = 
REMARK  3 active torsions:
REMARK  status: ('A' for Active; 'I' for Inactive)
REMARK    1  A    between atoms: CA_2  and  C_3
REMARK    2  A    between atoms: CA_2  and  C_8
REMARK    3  A    between atoms: C_3  and  C_4
REMARK                            x       y       z     vdW  Elec       q    Type
REMARK                         _______ _______ _______ _____ _____    ______ ____
ROOT
ATOM      1  N   UNL     1      24.493  55.190  -3.621  0.00  0.00    +0.000 NA
ATOM      2  CA  UNL     1      24.065  55.695  -5.053  0.00  0.00    +0.000 C 
ENDROOT
BRANCH   2   8
ATOM      8  C   UNL     1      22.583  55.058  -4.949  0.00  0.00    +0.000 C 
ATOM      9  O   UNL     1      22.174  54.481  -6.005  0.00  0.00    +0.000 OA
ATOM     10  OXT UNL     1      22.647  54.120  -3.903  0.00  0.00    +0.000 OA
ENDBRANCH   2   8
BRANCH   2   3
ATOM      3  C   UNL     1      24.708  54.351  -5.750  0.00  0.00    +0.000 C 
BRANCH   3   4
ATOM      4  C   UNL     1      25.485  54.782  -6.910  0.00  0.00    +0.000 C 
ATOM      5  O   UNL     1      26.795  55.205  -6.625  0.00  0.00    +0.000 OA
ATOM      6  N   UNL     1      24.916  55.297  -7.938  0.00  0.00    +0.000 NA
ATOM      7  O   UNL     1      25.391  56.353  -8.661  0.00  0.00    +0.000 OA
ENDBRANCH   3   4
ENDBRANCH   2   3
TORSDOF 3
ENDMDL
MODEL 3
REMARK VINA RESULT:      -4.2     32.811     34.292
REMARK  Name = 
REMARK  3 active torsions:
REMARK  status: ('A' for Active; 'I' for Inactive)
REMARK    1  A    between atoms: CA_2  and  C_3
REMARK    2  A    between atoms: CA_2  and  C_8
REMARK    3  A    between atoms: C_3  and  C_4
REMARK                            x       y       z     vdW  Elec       q    Type
REMARK                         _______ _______ _______ _____ _____    ______ ____
ROOT
ATOM      1  N   UNL     1      16.573  61.451 -17.782  0.00  0.00    +0.000 NA
ATOM      2  CA  UNL     1      16.774  60.031 -17.122  0.00  0.00    +0.000 C 
ENDROOT
BRANCH   2   8
ATOM      8  C   UNL     1      18.181  60.434 -16.437  0.00  0.00    +0.000 C 
ATOM      9  O   UNL     1      18.883  61.260 -17.101  0.00  0.00    +0.000 OA
ATOM     10  OXT UNL     1      17.847  61.003 -15.195  0.00  0.00    +0.000 OA
ENDBRANCH   2   8
BRANCH   2   3
ATOM      3  C   UNL     1      17.484  59.464 -18.493  0.00  0.00    +0.000 C 
BRANCH   3   4
ATOM      4  C   UNL     1      17.671  58.024 -18.332  0.00  0.00    +0.000 C 
ATOM      5  O   UNL     1      18.536  57.428 -19.267  0.00  0.00    +0.000 OA
ATOM      6  N   UNL     1      16.748  57.285 -17.837  0.00  0.00    +0.000 NA
ATOM      7  O   UNL     1      16.410  56.036 -18.277  0.00  0.00    +0.000 OA
ENDBRANCH   3   4
ENDBRANCH   2   3
TORSDOF 3
ENDMDL
MODEL 4
REMARK VINA RESULT:      -4.1     32.535     34.287
REMARK  Name = 
REMARK  3 active torsions:
REMARK  status: ('A' for Active; 'I' for Inactive)
REMARK    1  A    between atoms: CA_2  and  C_3
REMARK    2  A    between atoms: CA_2  and  C_8
REMARK    3  A    between atoms: C_3  and  C_4
REMARK                            x       y       z     vdW  Elec       q    Type
REMARK                         _______ _______ _______ _____ _____    ______ ____
ROOT
ATOM      1  N   UNL     1      14.984  59.928 -17.373  0.00  0.00    +0.000 NA
ATOM      2  CA  UNL     1      16.279  59.528 -16.565  0.00  0.00    +0.000 C 
ENDROOT
BRANCH   2   8
ATOM      8  C   UNL     1      16.524  61.026 -16.011  0.00  0.00    +0.000 C 
ATOM      9  O   UNL     1      17.274  61.102 -14.988  0.00  0.00    +0.000 OA
ATOM     10  OXT UNL     1      17.117  61.730 -17.074  0.00  0.00    +0.000 OA
ENDBRANCH   2   8
BRANCH   2   3
ATOM      3  C   UNL     1      17.216  59.755 -17.898  0.00  0.00    +0.000 C 
BRANCH   3   4
ATOM      4  C   UNL     1      17.875  58.485 -18.197  0.00  0.00    +0.000 C 
ATOM      5  O   UNL     1      19.154  58.332 -17.632  0.00  0.00    +0.000 OA
ATOM      6  N   UNL     1      17.639  57.854 -19.288  0.00  0.00    +0.000 NA
ATOM      7  O   UNL     1      18.571  57.207 -20.047  0.00  0.00    +0.000 OA
ENDBRANCH   3   4
ENDBRANCH   2   3
TORSDOF 3
ENDMDL
MODEL 5
REMARK VINA RESULT:      -4.1     32.816     34.437
REMARK  Name = 
REMARK  3 active torsions:
REMARK  status: ('A' for Active; 'I' for Inactive)
REMARK    1  A    between atoms: CA_2  and  C_3
REMARK    2  A    between atoms: CA_2  and  C_8
REMARK    3  A    between atoms: C_3  and  C_4
REMARK                            x       y       z     vdW  Elec       q    Type
REMARK                         _______ _______ _______ _____ _____    ______ ____
ROOT
ATOM      1  N   UNL     1      15.588  59.115 -19.271  0.00  0.00    +0.000 NA
ATOM      2  CA  UNL     1      17.072  59.160 -18.735  0.00  0.00    +0.000 C 
ENDROOT
BRANCH   2   8
ATOM      8  C   UNL     1      17.079  57.599 -18.317  0.00  0.00    +0.000 C 
ATOM      9  O   UNL     1      16.275  56.866 -18.974  0.00  0.00    +0.000 OA
ATOM     10  OXT UNL     1      18.396  57.156 -18.535  0.00  0.00    +0.000 OA
ENDBRANCH   2   8
BRANCH   2   3
ATOM      3  C   UNL     1      16.553  59.662 -17.258  0.00  0.00    +0.000 C 
BRANCH   3   4
ATOM      4  C   UNL     1      17.707  60.204 -16.543  0.00  0.00    +0.000 C 
ATOM      5  O   UNL     1      17.399  60.923 -15.374  0.00  0.00    +0.000 OA
ATOM      6  N   UNL     1      18.780  60.530 -17.164  0.00  0.00    +0.000 NA
ATOM      7  O   UNL     1      19.544  61.632 -16.903  0.00  0.00    +0.000 OA
ENDBRANCH   3   4
ENDBRANCH   2   3
TORSDOF 3
ENDMDL
MODEL 6
REMARK VINA RESULT:      -4.0      1.768      4.243
REMARK  Name = 
REMARK  3 active torsions:
REMARK  status: ('A' for Active; 'I' for Inactive)
REMARK    1  A    between atoms: CA_2  and  C_3
REMARK    2  A    between atoms: CA_2  and  C_8
REMARK    3  A    between atoms: C_3  and  C_4
REMARK                            x       y       z     vdW  Elec       q    Type
REMARK                         _______ _______ _______ _____ _____    ______ ____
ROOT
ATOM      1  N   UNL     1      19.211  61.652  19.447  0.00  0.00    +0.000 NA
ATOM      2  CA  UNL     1      18.400  62.359  18.293  0.00  0.00    +0.000 C 
ENDROOT
BRANCH   2   8
ATOM      8  C   UNL     1      16.985  61.740  18.767  0.00  0.00    +0.000 C 
ATOM      9  O   UNL     1      15.988  62.074  18.051  0.00  0.00    +0.000 OA
ATOM     10  OXT UNL     1      17.146  60.344  18.713  0.00  0.00    +0.000 OA
ENDBRANCH   2   8
BRANCH   2   3
ATOM      3  C   UNL     1      18.721  61.115  17.267  0.00  0.00    +0.000 C 
BRANCH   3   4
ATOM      4  C   UNL     1      18.870  61.675  15.925  0.00  0.00    +0.000 C 
ATOM      5  O   UNL     1      19.957  61.172  15.188  0.00  0.00    +0.000 OA
ATOM      6  N   UNL     1      18.484  62.868  15.655  0.00  0.00    +0.000 NA
ATOM      7  O   UNL     1      19.151  63.756  14.860  0.00  0.00    +0.000 OA
ENDBRANCH   3   4
ENDBRANCH   2   3
TORSDOF 3
ENDMDL
MODEL 7
REMARK VINA RESULT:      -3.9     26.936     28.543
REMARK  Name = 
REMARK  3 active torsions:
REMARK  status: ('A' for Active; 'I' for Inactive)
REMARK    1  A    between atoms: CA_2  and  C_3
REMARK    2  A    between atoms: CA_2  and  C_8
REMARK    3  A    between atoms: C_3  and  C_4
REMARK                            x       y       z     vdW  Elec       q    Type
REMARK                         _______ _______ _______ _____ _____    ______ ____
ROOT
ATOM      1  N   UNL     1      16.067  67.655  -9.665  0.00  0.00    +0.000 NA
ATOM      2  CA  UNL     1      17.001  66.525 -10.250  0.00  0.00    +0.000 C 
ENDROOT
BRANCH   2   8
ATOM      8  C   UNL     1      18.328  67.105  -9.533  0.00  0.00    +0.000 C 
ATOM      9  O   UNL     1      19.425  66.708 -10.036  0.00  0.00    +0.000 OA
ATOM     10  OXT UNL     1      18.242  68.504  -9.653  0.00  0.00    +0.000 OA
ENDBRANCH   2   8
BRANCH   2   3
ATOM      3  C   UNL     1      17.238  67.394 -11.626  0.00  0.00    +0.000 C 
BRANCH   3   4
ATOM      4  C   UNL     1      17.191  66.463 -12.752  0.00  0.00    +0.000 C 
ATOM      5  O   UNL     1      16.723  67.012 -13.959  0.00  0.00    +0.000 OA
ATOM      6  N   UNL     1      17.002  65.208 -12.569  0.00  0.00    +0.000 NA
ATOM      7  O   UNL     1      16.222  64.402 -13.349  0.00  0.00    +0.000 OA
ENDBRANCH   3   4
ENDBRANCH   2   3
TORSDOF 3
ENDMDL
MODEL 8
REMARK VINA RESULT:      -3.9     11.474     11.955
REMARK  Name = 
REMARK  3 active torsions:
REMARK  status: ('A' for Active; 'I' for Inactive)
REMARK    1  A    between atoms: CA_2  and  C_3
REMARK    2  A    between atoms: CA_2  and  C_8
REMARK    3  A    between atoms: C_3  and  C_4
REMARK                            x       y       z     vdW  Elec       q    Type
REMARK                         _______ _______ _______ _____ _____    ______ ____
ROOT
ATOM      1  N   UNL     1      10.966  58.696   5.572  0.00  0.00    +0.000 NA
ATOM      2  CA  UNL     1      11.593  59.095   6.965  0.00  0.00    +0.000 C 
ENDROOT
BRANCH   2   8
ATOM      8  C   UNL     1      13.012  59.522   6.322  0.00  0.00    +0.000 C 
ATOM      9  O   UNL     1      13.938  59.740   7.165  0.00  0.00    +0.000 OA
ATOM     10  OXT UNL     1      13.387  58.452   5.489  0.00  0.00    +0.000 OA
ENDBRANCH   2   8
BRANCH   2   3
ATOM      3  C   UNL     1      12.061  57.541   7.231  0.00  0.00    +0.000 C 
BRANCH   3   4
ATOM      4  C   UNL     1      11.341  57.057   8.407  0.00  0.00    +0.000 C 
ATOM      5  O   UNL     1      11.753  55.798   8.880  0.00  0.00    +0.000 OA
ATOM      6  N   UNL     1      10.124  57.394   8.627  0.00  0.00    +0.000 NA
ATOM      7  O   UNL     1       9.146  56.567   9.103  0.00  0.00    +0.000 OA
ENDBRANCH   3   4
ENDBRANCH   2   3
TORSDOF 3
ENDMDL
MODEL 9
REMARK VINA RESULT:      -3.8     12.998     14.084
REMARK  Name = 
REMARK  3 active torsions:
REMARK  status: ('A' for Active; 'I' for Inactive)
REMARK    1  A    between atoms: CA_2  and  C_3
REMARK    2  A    between atoms: CA_2  and  C_8
REMARK    3  A    between atoms: C_3  and  C_4
REMARK                            x       y       z     vdW  Elec       q    Type
REMARK                         _______ _______ _______ _____ _____    ______ ____
ROOT
ATOM      1  N   UNL     1       8.781  56.875   7.013  0.00  0.00    +0.000 NA
ATOM      2  CA  UNL     1      10.119  56.038   7.043  0.00  0.00    +0.000 C 
ENDROOT
BRANCH   2   8
ATOM      8  C   UNL     1      10.368  56.296   8.618  0.00  0.00    +0.000 C 
ATOM      9  O   UNL     1       9.499  55.780   9.389  0.00  0.00    +0.000 OA
ATOM     10  OXT UNL     1      11.628  55.736   8.899  0.00  0.00    +0.000 OA
ENDBRANCH   2   8
BRANCH   2   3
ATOM      3  C   UNL     1      10.987  57.358   6.583  0.00  0.00    +0.000 C 
BRANCH   3   4
ATOM      4  C   UNL     1      11.804  56.972   5.433  0.00  0.00    +0.000 C 
ATOM      5  O   UNL     1      12.832  57.873   5.105  0.00  0.00    +0.000 OA
ATOM      6  N   UNL     1      11.318  56.267   4.479  0.00  0.00    +0.000 NA
ATOM      7  O   UNL     1      11.572  56.451   3.149  0.00  0.00    +0.000 OA
ENDBRANCH   3   4
ENDBRANCH   2   3
TORSDOF 3
ENDMDL
MODEL 10
REMARK VINA RESULT:      -3.8     25.750     26.583
REMARK  Name = 
REMARK  3 active torsions:
REMARK  status: ('A' for Active; 'I' for Inactive)
REMARK    1  A    between atoms: CA_2  and  C_3
REMARK    2  A    between atoms: CA_2  and  C_8
REMARK    3  A    between atoms: C_3  and  C_4
REMARK                            x       y       z     vdW  Elec       q    Type
REMARK                         _______ _______ _______ _____ _____    ______ ____
ROOT
ATOM      1  N   UNL     1       4.318  81.603  30.641  0.00  0.00    +0.000 NA
ATOM      2  CA  UNL     1       5.021  81.403  29.243  0.00  0.00    +0.000 C 
ENDROOT
BRANCH   2   8
ATOM      8  C   UNL     1       4.387  79.934  29.017  0.00  0.00    +0.000 C 
ATOM      9  O   UNL     1       4.617  79.421  27.877  0.00  0.00    +0.000 OA
ATOM     10  OXT UNL     1       4.955  79.120  30.014  0.00  0.00    +0.000 OA
ENDBRANCH   2   8
BRANCH   2   3
ATOM      3  C   UNL     1       6.374  80.822  29.975  0.00  0.00    +0.000 C 
BRANCH   3   4
ATOM      4  C   UNL     1       7.526  81.267  29.194  0.00  0.00    +0.000 C 
ATOM      5  O   UNL     1       8.556  81.866  29.941  0.00  0.00    +0.000 OA
ATOM      6  N   UNL     1       7.399  81.639  27.973  0.00  0.00    +0.000 NA
ATOM      7  O   UNL     1       8.043  82.695  27.395  0.00  0.00    +0.000 OA
ENDBRANCH   3   4
ENDBRANCH   2   3
TORSDOF 3
ENDMDL
