MODEL 1
REMARK VINA RESULT:      -5.0      0.000      0.000
REMARK  Name = 
REMARK  7 active torsions:
REMARK  status: ('A' for Active; 'I' for Inactive)
REMARK    1  A    between atoms: CA_2  and  CB_3
REMARK    2  A    between atoms: CA_2  and  C_7
REMARK    3  A    between atoms: CB_3  and  CG_4
REMARK    4  A    between atoms: N_9  and  CA_10
REMARK    5  A    between atoms: CA_10  and  CB_11
REMARK    6  A    between atoms: CA_10  and  C_15
REMARK    7  A    between atoms: CB_11  and  CG_12
REMARK                            x       y       z     vdW  Elec       q    Type
REMARK                         _______ _______ _______ _____ _____    ______ ____
ROOT
ATOM      7  C   ASP A   1      26.709  52.315 -17.586  0.00  0.00    +0.000 C 
ATOM      8  O   ASP A   1      26.127  52.116 -18.701  0.00  0.00    +0.000 OA
ATOM      9  N   ASP A   2      28.025  52.701 -17.454  0.00  0.00    +0.000 NA
ENDROOT
BRANCH   7   2
ATOM      1  N   ASP A   1      24.812  51.012 -17.557  0.00  0.00    +0.000 NA
ATOM      2  CA  ASP A   1      25.924  51.420 -16.506  0.00  0.00    +0.000 C 
BRANCH   2   3
ATOM      3  CB  ASP A   1      25.006  52.648 -15.909  0.00  0.00    +0.000 C 
BRANCH   3   4
ATOM      4  CG  ASP A   1      24.344  52.023 -14.713  0.00  0.00    +0.000 C 
ATOM      5  OD1 ASP A   1      23.216  52.359 -14.320  0.00  0.00    +0.000 OA
ATOM      6  OD2 ASP A   1      25.173  51.328 -13.827  0.00  0.00    +0.000 OA
ENDBRANCH   3   4
ENDBRANCH   2   3
ENDBRANCH   7   2
BRANCH   9  10
ATOM     10  CA  ASP A   2      28.807  52.497 -18.813  0.00  0.00    +0.000 C 
BRANCH  10  15
ATOM     15  C   ASP A   2      30.183  52.018 -18.099  0.00  0.00    +0.000 C 
ATOM     16  O   ASP A   2      31.204  52.306 -18.803  0.00  0.00    +0.000 OA
ATOM     17  OXT ASP A   2      30.232  52.706 -16.873  0.00  0.00    +0.000 OA
ENDBRANCH  10  15
BRANCH  10  11
ATOM     11  CB  ASP A   2      29.241  54.079 -18.898  0.00  0.00    +0.000 C 
BRANCH  11  12
ATOM     12  CG  ASP A   2      28.643  54.697 -20.027  0.00  0.00    +0.000 C 
ATOM     13  OD1 ASP A   2      27.814  54.337 -20.899  0.00  0.00    +0.000 OA
ATOM     14  OD2 ASP A   2      29.365  55.803 -20.489  0.00  0.00    +0.000 OA
ENDBRANCH  11  12
ENDBRANCH  10  11
ENDBRANCH   9  10
TORSDOF 7
ENDMDL
MODEL 2
REMARK VINA RESULT:      -5.0     10.791     13.547
REMARK  Name = 
REMARK  7 active torsions:
REMARK  status: ('A' for Active; 'I' for Inactive)
REMARK    1  A    between atoms: CA_2  and  CB_3
REMARK    2  A    between atoms: CA_2  and  C_7
REMARK    3  A    between atoms: CB_3  and  CG_4
REMARK    4  A    between atoms: N_9  and  CA_10
REMARK    5  A    between atoms: CA_10  and  CB_11
REMARK    6  A    between atoms: CA_10  and  C_15
REMARK    7  A    between atoms: CB_11  and  CG_12
REMARK                            x       y       z     vdW  Elec       q    Type
REMARK                         _______ _______ _______ _____ _____    ______ ____
ROOT
ATOM      7  C   ASP A   1      25.304  56.696  -6.259  0.00  0.00    +0.000 C 
ATOM      8  O   ASP A   1      25.980  57.164  -5.287  0.00  0.00    +0.000 OA
ATOM      9  N   ASP A   2      23.994  56.279  -6.165  0.00  0.00    +0.000 NA
ENDROOT
BRANCH   7   2
ATOM      1  N   ASP A   1      25.364  56.186  -8.502  0.00  0.00    +0.000 NA
ATOM      2  CA  ASP A   1      26.372  56.073  -7.286  0.00  0.00    +0.000 C 
BRANCH   2   3
ATOM      3  CB  ASP A   1      25.971  54.501  -7.009  0.00  0.00    +0.000 C 
BRANCH   3   4
ATOM      4  CG  ASP A   1      27.309  53.835  -6.852  0.00  0.00    +0.000 C 
ATOM      5  OD1 ASP A   1      28.065  53.616  -7.812  0.00  0.00    +0.000 OA
ATOM      6  OD2 ASP A   1      27.523  53.126  -5.668  0.00  0.00    +0.000 OA
ENDBRANCH   3   4
ENDBRANCH   2   3
ENDBRANCH   7   2
BRANCH   9  10
ATOM     10  CA  ASP A   2      23.569  56.104  -4.653  0.00  0.00    +0.000 C 
BRANCH  10  15
ATOM     15  C   ASP A   2      23.105  54.559  -4.829  0.00  0.00    +0.000 C 
ATOM     16  O   ASP A   2      22.482  54.134  -3.803  0.00  0.00    +0.000 OA
ATOM     17  OXT ASP A   2      22.255  54.545  -5.950  0.00  0.00    +0.000 OA
ENDBRANCH  10  15
BRANCH  10  11
ATOM     11  CB  ASP A   2      22.071  56.726  -4.913  0.00  0.00    +0.000 C 
BRANCH  11  12
ATOM     12  CG  ASP A   2      22.146  58.129  -5.118  0.00  0.00    +0.000 C 
ATOM     13  OD1 ASP A   2      22.428  59.116  -4.395  0.00  0.00    +0.000 OA
ATOM     14  OD2 ASP A   2      21.429  58.555  -6.241  0.00  0.00    +0.000 OA
ENDBRANCH  11  12
ENDBRANCH  10  11
ENDBRANCH   9  10
TORSDOF 7
ENDMDL
MODEL 3
REMARK VINA RESULT:      -4.9     28.727     31.378
REMARK  Name = 
REMARK  7 active torsions:
REMARK  status: ('A' for Active; 'I' for Inactive)
REMARK    1  A    between atoms: CA_2  and  CB_3
REMARK    2  A    between atoms: CA_2  and  C_7
REMARK    3  A    between atoms: CB_3  and  CG_4
REMARK    4  A    between atoms: N_9  and  CA_10
REMARK    5  A    between atoms: CA_10  and  CB_11
REMARK    6  A    between atoms: CA_10  and  C_15
REMARK    7  A    between atoms: CB_11  and  CG_12
REMARK                            x       y       z     vdW  Elec       q    Type
REMARK                         _______ _______ _______ _____ _____    ______ ____
ROOT
ATOM      7  C   ASP A   1       9.135  58.862   7.937  0.00  0.00    +0.000 C 
ATOM      8  O   ASP A   1       9.178  59.570   6.881  0.00  0.00    +0.000 OA
ATOM      9  N   ASP A   2       9.982  57.807   8.201  0.00  0.00    +0.000 NA
ENDROOT
BRANCH   7   2
ATOM      1  N   ASP A   1       7.092  57.987   7.343  0.00  0.00    +0.000 NA
ATOM      2  CA  ASP A   1       7.624  58.955   8.477  0.00  0.00    +0.000 C 
BRANCH   2   3
ATOM      3  CB  ASP A   1       7.223  60.298   7.614  0.00  0.00    +0.000 C 
BRANCH   3   4
ATOM      4  CG  ASP A   1       5.850  60.631   8.128  0.00  0.00    +0.000 C 
ATOM      5  OD1 ASP A   1       5.556  60.580   9.333  0.00  0.00    +0.000 OA
ATOM      6  OD2 ASP A   1       4.811  60.631   7.194  0.00  0.00    +0.000 OA
ENDBRANCH   3   4
ENDBRANCH   2   3
ENDBRANCH   7   2
BRANCH   9  10
ATOM     10  CA  ASP A   2      10.743  57.359   6.890  0.00  0.00    +0.000 C 
BRANCH  10  15
ATOM     15  C   ASP A   2      10.850  55.801   7.330  0.00  0.00    +0.000 C 
ATOM     16  O   ASP A   2      11.412  55.095   6.432  0.00  0.00    +0.000 OA
ATOM     17  OXT ASP A   2      11.624  55.793   8.505  0.00  0.00    +0.000 OA
ENDBRANCH  10  15
BRANCH  10  11
ATOM     11  CB  ASP A   2      12.211  57.774   7.498  0.00  0.00    +0.000 C 
BRANCH  11  12
ATOM     12  CG  ASP A   2      12.959  58.499   6.534  0.00  0.00    +0.000 C 
ATOM     13  OD1 ASP A   2      13.324  58.286   5.351  0.00  0.00    +0.000 OA
ATOM     14  OD2 ASP A   2      13.760  59.496   7.103  0.00  0.00    +0.000 OA
ENDBRANCH  11  12
ENDBRANCH  10  11
ENDBRANCH   9  10
TORSDOF 7
ENDMDL
MODEL 4
REMARK VINA RESULT:      -4.8     18.255     20.123
REMARK  Name = 
REMARK  7 active torsions:
REMARK  status: ('A' for Active; 'I' for Inactive)
REMARK    1  A    between atoms: CA_2  and  CB_3
REMARK    2  A    between atoms: CA_2  and  C_7
REMARK    3  A    between atoms: CB_3  and  CG_4
REMARK    4  A    between atoms: N_9  and  CA_10
REMARK    5  A    between atoms: CA_10  and  CB_11
REMARK    6  A    between atoms: CA_10  and  C_15
REMARK    7  A    between atoms: CB_11  and  CG_12
REMARK                            x       y       z     vdW  Elec       q    Type
REMARK                         _______ _______ _______ _____ _____    ______ ____
ROOT
ATOM      7  C   ASP A   1      17.106  67.940  -8.658  0.00  0.00    +0.000 C 
ATOM      8  O   ASP A   1      16.074  67.201  -8.744  0.00  0.00    +0.000 OA
ATOM      9  N   ASP A   2      18.369  67.564  -9.064  0.00  0.00    +0.000 NA
ENDROOT
BRANCH   7   2
ATOM      1  N   ASP A   1      15.257  68.919  -7.700  0.00  0.00    +0.000 NA
ATOM      2  CA  ASP A   1      16.820  68.968  -7.455  0.00  0.00    +0.000 C 
BRANCH   2   3
ATOM      3  CB  ASP A   1      16.989  70.332  -8.360  0.00  0.00    +0.000 C 
BRANCH   3   4
ATOM      4  CG  ASP A   1      17.402  71.360  -7.344  0.00  0.00    +0.000 C 
ATOM      5  OD1 ASP A   1      18.132  71.091  -6.377  0.00  0.00    +0.000 OA
ATOM      6  OD2 ASP A   1      16.644  72.534  -7.293  0.00  0.00    +0.000 OA
ENDBRANCH   3   4
ENDBRANCH   2   3
ENDBRANCH   7   2
BRANCH   9  10
ATOM     10  CA  ASP A   2      18.441  66.001  -9.291  0.00  0.00    +0.000 C 
BRANCH  10  15
ATOM     15  C   ASP A   2      19.810  65.812  -8.441  0.00  0.00    +0.000 C 
ATOM     16  O   ASP A   2      20.380  64.705  -8.706  0.00  0.00    +0.000 OA
ATOM     17  OXT ASP A   2      20.640  66.884  -8.817  0.00  0.00    +0.000 OA
ENDBRANCH  10  15
BRANCH  10  11
ATOM     11  CB  ASP A   2      19.200  66.161 -10.739  0.00  0.00    +0.000 C 
BRANCH  11  12
ATOM     12  CG  ASP A   2      18.258  66.111 -11.799  0.00  0.00    +0.000 C 
ATOM     13  OD1 ASP A   2      17.941  66.880 -12.740  0.00  0.00    +0.000 OA
ATOM     14  OD2 ASP A   2      17.225  65.196 -11.569  0.00  0.00    +0.000 OA
ENDBRANCH  11  12
ENDBRANCH  10  11
ENDBRANCH   9  10
TORSDOF 7
ENDMDL
MODEL 5
REMARK VINA RESULT:      -4.8     33.580     35.787
REMARK  Name = 
REMARK  7 active torsions:
REMARK  status: ('A' for Active; 'I' for Inactive)
REMARK    1  A    between atoms: CA_2  and  CB_3
REMARK    2  A    between atoms: CA_2  and  C_7
REMARK    3  A    between atoms: CB_3  and  CG_4
REMARK    4  A    between atoms: N_9  and  CA_10
REMARK    5  A    between atoms: CA_10  and  CB_11
REMARK    6  A    between atoms: CA_10  and  C_15
REMARK    7  A    between atoms: CB_11  and  CG_12
REMARK                            x       y       z     vdW  Elec       q    Type
REMARK                         _______ _______ _______ _____ _____    ______ ____
ROOT
ATOM      7  C   ASP A   1      19.856  63.567  15.553  0.00  0.00    +0.000 C 
ATOM      8  O   ASP A   1      19.071  63.969  16.470  0.00  0.00    +0.000 OA
ATOM      9  N   ASP A   2      20.123  64.267  14.395  0.00  0.00    +0.000 NA
ENDROOT
BRANCH   7   2
ATOM      1  N   ASP A   1      19.157  61.798  14.259  0.00  0.00    +0.000 NA
ATOM      2  CA  ASP A   1      19.882  61.963  15.656  0.00  0.00    +0.000 C 
BRANCH   2   3
ATOM      3  CB  ASP A   1      18.466  61.829  16.485  0.00  0.00    +0.000 C 
BRANCH   3   4
ATOM      4  CG  ASP A   1      18.714  60.652  17.386  0.00  0.00    +0.000 C 
ATOM      5  OD1 ASP A   1      19.455  59.708  17.066  0.00  0.00    +0.000 OA
ATOM      6  OD2 ASP A   1      17.802  60.453  18.426  0.00  0.00    +0.000 OA
ENDBRANCH   3   4
ENDBRANCH   2   3
ENDBRANCH   7   2
BRANCH   9  10
ATOM     10  CA  ASP A   2      19.063  65.421  14.183  0.00  0.00    +0.000 C 
BRANCH  10  15
ATOM     15  C   ASP A   2      19.246  65.467  12.571  0.00  0.00    +0.000 C 
ATOM     16  O   ASP A   2      19.946  64.492  12.148  0.00  0.00    +0.000 OA
ATOM     17  OXT ASP A   2      17.945  65.394  12.040  0.00  0.00    +0.000 OA
ENDBRANCH  10  15
BRANCH  10  11
ATOM     11  CB  ASP A   2      20.164  66.603  14.479  0.00  0.00    +0.000 C 
BRANCH  11  12
ATOM     12  CG  ASP A   2      19.559  67.679  15.180  0.00  0.00    +0.000 C 
ATOM     13  OD1 ASP A   2      19.870  68.371  16.181  0.00  0.00    +0.000 OA
ATOM     14  OD2 ASP A   2      18.183  67.777  14.946  0.00  0.00    +0.000 OA
ENDBRANCH  11  12
ENDBRANCH  10  11
ENDBRANCH   9  10
TORSDOF 7
ENDMDL
MODEL 6
REMARK VINA RESULT:      -4.8     12.572     15.566
REMARK  Name = 
REMARK  7 active torsions:
REMARK  status: ('A' for Active; 'I' for Inactive)
REMARK    1  A    between atoms: CA_2  and  CB_3
REMARK    2  A    between atoms: CA_2  and  C_7
REMARK    3  A    between atoms: CB_3  and  CG_4
REMARK    4  A    between atoms: N_9  and  CA_10
REMARK    5  A    between atoms: CA_10  and  CB_11
REMARK    6  A    between atoms: CA_10  and  C_15
REMARK    7  A    between atoms: CB_11  and  CG_12
REMARK                            x       y       z     vdW  Elec       q    Type
REMARK                         _______ _______ _______ _____ _____    ______ ____
ROOT
ATOM      7  C   ASP A   1      16.514  60.692 -15.464  0.00  0.00    +0.000 C 
ATOM      8  O   ASP A   1      15.537  59.936 -15.770  0.00  0.00    +0.000 OA
ATOM      9  N   ASP A   2      16.425  61.772 -14.611  0.00  0.00    +0.000 NA
ENDROOT
BRANCH   7   2
ATOM      1  N   ASP A   1      16.820  61.763 -17.478  0.00  0.00    +0.000 NA
ATOM      2  CA  ASP A   1      17.550  60.601 -16.689  0.00  0.00    +0.000 C 
BRANCH   2   3
ATOM      3  CB  ASP A   1      16.731  59.434 -17.512  0.00  0.00    +0.000 C 
BRANCH   3   4
ATOM      4  CG  ASP A   1      17.834  58.619 -18.127  0.00  0.00    +0.000 C 
ATOM      5  OD1 ASP A   1      18.968  58.542 -17.629  0.00  0.00    +0.000 OA
ATOM      6  OD2 ASP A   1      17.676  58.258 -19.468  0.00  0.00    +0.000 OA
ENDBRANCH   3   4
ENDBRANCH   2   3
ENDBRANCH   7   2
BRANCH   9  10
ATOM     10  CA  ASP A   2      14.914  62.170 -14.369  0.00  0.00    +0.000 C 
BRANCH  10  15
ATOM     15  C   ASP A   2      15.164  63.758 -14.589  0.00  0.00    +0.000 C 
ATOM     16  O   ASP A   2      14.107  64.435 -14.375  0.00  0.00    +0.000 OA
ATOM     17  OXT ASP A   2      16.162  64.115 -13.663  0.00  0.00    +0.000 OA
ENDBRANCH  10  15
BRANCH  10  11
ATOM     11  CB  ASP A   2      15.103  62.226 -12.738  0.00  0.00    +0.000 C 
BRANCH  11  12
ATOM     12  CG  ASP A   2      14.072  61.493 -12.095  0.00  0.00    +0.000 C 
ATOM     13  OD1 ASP A   2      13.642  61.415 -10.917  0.00  0.00    +0.000 OA
ATOM     14  OD2 ASP A   2      13.669  60.367 -12.820  0.00  0.00    +0.000 OA
ENDBRANCH  11  12
ENDBRANCH  10  11
ENDBRANCH   9  10
TORSDOF 7
ENDMDL
MODEL 7
REMARK VINA RESULT:      -4.7     40.272     43.862
REMARK  Name = 
REMARK  7 active torsions:
REMARK  status: ('A' for Active; 'I' for Inactive)
REMARK    1  A    between atoms: CA_2  and  CB_3
REMARK    2  A    between atoms: CA_2  and  C_7
REMARK    3  A    between atoms: CB_3  and  CG_4
REMARK    4  A    between atoms: N_9  and  CA_10
REMARK    5  A    between atoms: CA_10  and  CB_11
REMARK    6  A    between atoms: CA_10  and  C_15
REMARK    7  A    between atoms: CB_11  and  CG_12
REMARK                            x       y       z     vdW  Elec       q    Type
REMARK                         _______ _______ _______ _____ _____    ______ ____
ROOT
ATOM      7  C   ASP A   1       6.150  54.142  20.093  0.00  0.00    +0.000 C 
ATOM      8  O   ASP A   1       5.934  55.169  19.373  0.00  0.00    +0.000 OA
ATOM      9  N   ASP A   2       6.395  54.181  21.449  0.00  0.00    +0.000 NA
ENDROOT
BRANCH   7   2
ATOM      1  N   ASP A   1       6.739  51.923  20.248  0.00  0.00    +0.000 NA
ATOM      2  CA  ASP A   1       6.743  53.020  19.106  0.00  0.00    +0.000 C 
BRANCH   2   3
ATOM      3  CB  ASP A   1       8.325  53.389  19.370  0.00  0.00    +0.000 C 
BRANCH   3   4
ATOM      4  CG  ASP A   1       8.971  53.059  18.054  0.00  0.00    +0.000 C 
ATOM      5  OD1 ASP A   1       9.911  53.720  17.585  0.00  0.00    +0.000 OA
ATOM      6  OD2 ASP A   1       8.250  52.231  17.189  0.00  0.00    +0.000 OA
ENDBRANCH   3   4
ENDBRANCH   2   3
ENDBRANCH   7   2
BRANCH   9  10
ATOM     10  CA  ASP A   2       6.745  55.652  21.912  0.00  0.00    +0.000 C 
BRANCH  10  15
ATOM     15  C   ASP A   2       7.868  55.184  22.986  0.00  0.00    +0.000 C 
ATOM     16  O   ASP A   2       8.129  53.943  22.884  0.00  0.00    +0.000 OA
ATOM     17  OXT ASP A   2       9.014  55.944  22.690  0.00  0.00    +0.000 OA
ENDBRANCH  10  15
BRANCH  10  11
ATOM     11  CB  ASP A   2       5.519  55.690  23.005  0.00  0.00    +0.000 C 
BRANCH  11  12
ATOM     12  CG  ASP A   2       4.518  56.609  22.594  0.00  0.00    +0.000 C 
ATOM     13  OD1 ASP A   2       4.173  57.762  22.953  0.00  0.00    +0.000 OA
ATOM     14  OD2 ASP A   2       3.471  55.998  21.895  0.00  0.00    +0.000 OA
ENDBRANCH  11  12
ENDBRANCH  10  11
ENDBRANCH   9  10
TORSDOF 7
ENDMDL
MODEL 8
REMARK VINA RESULT:      -4.7     12.066     14.317
REMARK  Name = 
REMARK  7 active torsions:
REMARK  status: ('A' for Active; 'I' for Inactive)
REMARK    1  A    between atoms: CA_2  and  CB_3
REMARK    2  A    between atoms: CA_2  and  C_7
REMARK    3  A    between atoms: CB_3  and  CG_4
REMARK    4  A    between atoms: N_9  and  CA_10
REMARK    5  A    between atoms: CA_10  and  CB_11
REMARK    6  A    between atoms: CA_10  and  C_15
REMARK    7  A    between atoms: CB_11  and  CG_12
REMARK                            x       y       z     vdW  Elec       q    Type
REMARK                         _______ _______ _______ _____ _____    ______ ____
ROOT
ATOM      7  C   ASP A   1      16.436  60.384 -16.008  0.00  0.00    +0.000 C 
ATOM      8  O   ASP A   1      17.167  61.172 -16.689  0.00  0.00    +0.000 OA
ATOM      9  N   ASP A   2      15.871  59.226 -16.499  0.00  0.00    +0.000 NA
ENDROOT
BRANCH   7   2
ATOM      1  N   ASP A   1      14.497  60.352 -14.768  0.00  0.00    +0.000 NA
ATOM      2  CA  ASP A   1      15.778  61.279 -14.845  0.00  0.00    +0.000 C 
BRANCH   2   3
ATOM      3  CB  ASP A   1      15.033  62.342 -15.856  0.00  0.00    +0.000 C 
BRANCH   3   4
ATOM      4  CG  ASP A   1      15.031  63.617 -15.061  0.00  0.00    +0.000 C 
ATOM      5  OD1 ASP A   1      14.497  64.661 -15.470  0.00  0.00    +0.000 OA
ATOM      6  OD2 ASP A   1      15.966  63.715 -14.027  0.00  0.00    +0.000 OA
ENDBRANCH   3   4
ENDBRANCH   2   3
ENDBRANCH   7   2
BRANCH   9  10
ATOM     10  CA  ASP A   2      15.932  59.201 -18.078  0.00  0.00    +0.000 C 
BRANCH  10  15
ATOM     15  C   ASP A   2      14.433  58.606 -18.254  0.00  0.00    +0.000 C 
ATOM     16  O   ASP A   2      14.195  57.674 -17.421  0.00  0.00    +0.000 OA
ATOM     17  OXT ASP A   2      13.567  59.691 -18.025  0.00  0.00    +0.000 OA
ENDBRANCH  10  15
BRANCH  10  11
ATOM     11  CB  ASP A   2      16.666  57.731 -18.111  0.00  0.00    +0.000 C 
BRANCH  11  12
ATOM     12  CG  ASP A   2      17.960  57.837 -18.683  0.00  0.00    +0.000 C 
ATOM     13  OD1 ASP A   2      18.544  57.303 -19.660  0.00  0.00    +0.000 OA
ATOM     14  OD2 ASP A   2      18.906  58.365 -17.799  0.00  0.00    +0.000 OA
ENDBRANCH  11  12
ENDBRANCH  10  11
ENDBRANCH   9  10
TORSDOF 7
ENDMDL
MODEL 9
REMARK VINA RESULT:      -4.7     55.281     58.632
REMARK  Name = 
REMARK  7 active torsions:
REMARK  status: ('A' for Active; 'I' for Inactive)
REMARK    1  A    between atoms: CA_2  and  CB_3
REMARK    2  A    between atoms: CA_2  and  C_7
REMARK    3  A    between atoms: CB_3  and  CG_4
REMARK    4  A    between atoms: N_9  and  CA_10
REMARK    5  A    between atoms: CA_10  and  CB_11
REMARK    6  A    between atoms: CA_10  and  C_15
REMARK    7  A    between atoms: CB_11  and  CG_12
REMARK                            x       y       z     vdW  Elec       q    Type
REMARK                         _______ _______ _______ _____ _____    ______ ____
ROOT
ATOM      7  C   ASP A   1     -11.497  73.983  20.810  0.00  0.00    +0.000 C 
ATOM      8  O   ASP A   1     -11.865  73.137  19.933  0.00  0.00    +0.000 OA
ATOM      9  N   ASP A   2     -10.331  73.889  21.540  0.00  0.00    +0.000 NA
ENDROOT
BRANCH   7   2
ATOM      1  N   ASP A   1     -12.453  76.074  20.716  0.00  0.00    +0.000 NA
ATOM      2  CA  ASP A   1     -12.841  74.677  21.353  0.00  0.00    +0.000 C 
BRANCH   2   3
ATOM      3  CB  ASP A   1     -12.228  75.098  22.821  0.00  0.00    +0.000 C 
BRANCH   3   4
ATOM      4  CG  ASP A   1     -13.055  74.285  23.777  0.00  0.00    +0.000 C 
ATOM      5  OD1 ASP A   1     -12.623  73.897  24.874  0.00  0.00    +0.000 OA
ATOM      6  OD2 ASP A   1     -14.183  73.650  23.249  0.00  0.00    +0.000 OA
ENDBRANCH   3   4
ENDBRANCH   2   3
ENDBRANCH   7   2
BRANCH   9  10
ATOM     10  CA  ASP A   2      -9.714  72.438  21.425  0.00  0.00    +0.000 C 
BRANCH  10  15
ATOM     15  C   ASP A   2      -9.597  72.222  23.029  0.00  0.00    +0.000 C 
ATOM     16  O   ASP A   2      -9.533  73.331  23.650  0.00  0.00    +0.000 OA
ATOM     17  OXT ASP A   2     -10.761  71.526  23.403  0.00  0.00    +0.000 OA
ENDBRANCH  10  15
BRANCH  10  11
ATOM     11  CB  ASP A   2      -8.184  73.010  21.253  0.00  0.00    +0.000 C 
BRANCH  11  12
ATOM     12  CG  ASP A   2      -7.774  72.928  19.897  0.00  0.00    +0.000 C 
ATOM     13  OD1 ASP A   2      -7.634  71.995  19.068  0.00  0.00    +0.000 OA
ATOM     14  OD2 ASP A   2      -7.039  74.043  19.481  0.00  0.00    +0.000 OA
ENDBRANCH  11  12
ENDBRANCH  10  11
ENDBRANCH   9  10
TORSDOF 7
ENDMDL
MODEL 10
REMARK VINA RESULT:      -4.6     10.749     13.584
REMARK  Name = 
REMARK  7 active torsions:
REMARK  status: ('A' for Active; 'I' for Inactive)
REMARK    1  A    between atoms: CA_2  and  CB_3
REMARK    2  A    between atoms: CA_2  and  C_7
REMARK    3  A    between atoms: CB_3  and  CG_4
REMARK    4  A    between atoms: N_9  and  CA_10
REMARK    5  A    between atoms: CA_10  and  CB_11
REMARK    6  A    between atoms: CA_10  and  C_15
REMARK    7  A    between atoms: CB_11  and  CG_12
REMARK                            x       y       z     vdW  Elec       q    Type
REMARK                         _______ _______ _______ _____ _____    ______ ____
ROOT
ATOM      7  C   ASP A   1      25.908  56.444  -7.455  0.00  0.00    +0.000 C 
ATOM      8  O   ASP A   1      24.988  56.099  -8.263  0.00  0.00    +0.000 OA
ATOM      9  N   ASP A   2      25.720  56.652  -6.105  0.00  0.00    +0.000 NA
ENDROOT
BRANCH   7   2
ATOM      1  N   ASP A   1      27.893  55.909  -8.488  0.00  0.00    +0.000 NA
ATOM      2  CA  ASP A   1      27.011  57.214  -8.335  0.00  0.00    +0.000 C 
BRANCH   2   3
ATOM      3  CB  ASP A   1      27.899  57.748  -7.057  0.00  0.00    +0.000 C 
BRANCH   3   4
ATOM      4  CG  ASP A   1      28.872  58.699  -7.697  0.00  0.00    +0.000 C 
ATOM      5  OD1 ASP A   1      30.094  58.646  -7.492  0.00  0.00    +0.000 OA
ATOM      6  OD2 ASP A   1      28.342  59.879  -8.226  0.00  0.00    +0.000 OA
ENDBRANCH   3   4
ENDBRANCH   2   3
ENDBRANCH   7   2
BRANCH   9  10
ATOM     10  CA  ASP A   2      24.180  56.777  -5.768  0.00  0.00    +0.000 C 
BRANCH  10  15
ATOM     15  C   ASP A   2      24.406  57.774  -4.508  0.00  0.00    +0.000 C 
ATOM     16  O   ASP A   2      23.301  58.146  -3.998  0.00  0.00    +0.000 OA
ATOM     17  OXT ASP A   2      25.147  57.035  -3.568  0.00  0.00    +0.000 OA
ENDBRANCH  10  15
BRANCH  10  11
ATOM     11  CB  ASP A   2      24.182  55.408  -4.859  0.00  0.00    +0.000 C 
BRANCH  11  12
ATOM     12  CG  ASP A   2      23.034  54.624  -5.142  0.00  0.00    +0.000 C 
ATOM     13  OD1 ASP A   2      22.273  54.491  -6.133  0.00  0.00    +0.000 OA
ATOM     14  OD2 ASP A   2      22.392  54.160  -3.989  0.00  0.00    +0.000 OA
ENDBRANCH  11  12
ENDBRANCH  10  11
ENDBRANCH   9  10
TORSDOF 7
ENDMDL
