MODEL 1
REMARK VINA RESULT:      -5.0      0.000      0.000
REMARK  Name = 
REMARK  8 active torsions:
REMARK  status: ('A' for Active; 'I' for Inactive)
REMARK    1  A    between atoms: CD_2  and  CG_4
REMARK    2  A    between atoms: CG_4  and  CB_5
REMARK    3  A    between atoms: CB_5  and  CA_6
REMARK    4  A    between atoms: CA_6  and  N_7
REMARK    5  A    between atoms: CA_6  and  C_16
REMARK    6  A    between atoms: C_8  and  CA_10
REMARK    7  A    between atoms: CA_10  and  CB_12
REMARK    8  A    between atoms: CB_12  and  CG_13
REMARK                            x       y       z     vdW  Elec       q    Type
REMARK                         _______ _______ _______ _____ _____    ______ ____
ROOT
ATOM      6  CA  GLN A   2      12.099  59.231   6.675  0.00  0.00    +0.000 C 
ENDROOT
BRANCH   6   7
ATOM      7  N   GLN A   2      12.419  59.334   5.141  0.00  0.00    +0.000 NA
ATOM      8  C   ASP A   1      11.745  58.550   4.200  0.00  0.00    +0.000 C 
ATOM      9  O   ASP A   1      10.497  58.520   4.422  0.00  0.00    +0.000 OA
BRANCH   8  10
ATOM     10  CA  ASP A   1      12.180  59.195   2.779  0.00  0.00    +0.000 C 
ATOM     11  N   ASP A   1      10.948  60.170   2.642  0.00  0.00    +0.000 NA
BRANCH  10  12
ATOM     12  CB  ASP A   1      11.437  58.030   1.892  0.00  0.00    +0.000 C 
BRANCH  12  13
ATOM     13  CG  ASP A   1      12.482  57.354   1.089  0.00  0.00    +0.000 C 
ATOM     14  OD1 ASP A   1      13.663  57.811   1.212  0.00  0.00    +0.000 OA
ATOM     15  OD2 ASP A   1      12.450  55.963   1.286  0.00  0.00    +0.000 OA
ENDBRANCH  12  13
ENDBRANCH  10  12
ENDBRANCH   8  10
ENDBRANCH   6   7
BRANCH   6  16
ATOM     16  C   GLN A   2      13.483  59.939   7.100  0.00  0.00    +0.000 C 
ATOM     17  O   GLN A   2      13.959  59.733   8.196  0.00  0.00    +0.000 OA
ATOM     18  OXT GLN A   2      13.991  60.794   6.141  0.00  0.00    +0.000 OA
ENDBRANCH   6  16
BRANCH   6   5
ATOM      5  CB  GLN A   2      12.664  57.701   6.859  0.00  0.00    +0.000 C 
BRANCH   5   4
ATOM      4  CG  GLN A   2      11.670  56.893   7.567  0.00  0.00    +0.000 C 
BRANCH   4   2
ATOM      1  NE2 GLN A   2      11.353  55.330   6.580  0.00  0.00    +0.000 NA
ATOM      2  CD  GLN A   2      11.103  55.732   6.821  0.00  0.00    +0.000 C 
ATOM      3  OE1 GLN A   2       9.847  55.706   6.648  0.00  0.00    +0.000 OA
ENDBRANCH   4   2
ENDBRANCH   5   4
ENDBRANCH   6   5
TORSDOF 8
ENDMDL
MODEL 2
REMARK VINA RESULT:      -5.0      4.556      6.024
REMARK  Name = 
REMARK  8 active torsions:
REMARK  status: ('A' for Active; 'I' for Inactive)
REMARK    1  A    between atoms: CD_2  and  CG_4
REMARK    2  A    between atoms: CG_4  and  CB_5
REMARK    3  A    between atoms: CB_5  and  CA_6
REMARK    4  A    between atoms: CA_6  and  N_7
REMARK    5  A    between atoms: CA_6  and  C_16
REMARK    6  A    between atoms: C_8  and  CA_10
REMARK    7  A    between atoms: CA_10  and  CB_12
REMARK    8  A    between atoms: CB_12  and  CG_13
REMARK                            x       y       z     vdW  Elec       q    Type
REMARK                         _______ _______ _______ _____ _____    ______ ____
ROOT
ATOM      6  CA  GLN A   2       6.661  58.141   8.001  0.00  0.00    +0.000 C 
ENDROOT
BRANCH   6   7
ATOM      7  N   GLN A   2       8.089  57.526   8.217  0.00  0.00    +0.000 NA
ATOM      8  C   ASP A   1       8.400  56.234   7.784  0.00  0.00    +0.000 C 
ATOM      9  O   ASP A   1       7.961  56.013   6.616  0.00  0.00    +0.000 OA
BRANCH   8  10
ATOM     10  CA  ASP A   1      10.010  56.151   7.947  0.00  0.00    +0.000 C 
ATOM     11  N   ASP A   1      10.172  57.477   8.786  0.00  0.00    +0.000 NA
BRANCH  10  12
ATOM     12  CB  ASP A   1      10.308  56.934   6.534  0.00  0.00    +0.000 C 
BRANCH  12  13
ATOM     13  CG  ASP A   1      11.405  56.209   5.852  0.00  0.00    +0.000 C 
ATOM     14  OD1 ASP A   1      12.537  56.790   5.842  0.00  0.00    +0.000 OA
ATOM     15  OD2 ASP A   1      11.512  54.891   6.327  0.00  0.00    +0.000 OA
ENDBRANCH  12  13
ENDBRANCH  10  12
ENDBRANCH   8  10
ENDBRANCH   6   7
BRANCH   6  16
ATOM     16  C   GLN A   2       7.237  59.635   7.817  0.00  0.00    +0.000 C 
ATOM     17  O   GLN A   2       6.746  60.556   8.436  0.00  0.00    +0.000 OA
ATOM     18  OXT GLN A   2       8.254  59.731   6.888  0.00  0.00    +0.000 OA
ENDBRANCH   6  16
BRANCH   6   5
ATOM      5  CB  GLN A   2       6.315  58.322   9.596  0.00  0.00    +0.000 C 
BRANCH   5   4
ATOM      4  CG  GLN A   2       5.467  57.216  10.042  0.00  0.00    +0.000 C 
BRANCH   4   2
ATOM      1  NE2 GLN A   2       6.496  56.362  11.357  0.00  0.00    +0.000 NA
ATOM      2  CD  GLN A   2       6.026  56.340  11.113  0.00  0.00    +0.000 C 
ATOM      3  OE1 GLN A   2       5.336  55.336  11.465  0.00  0.00    +0.000 OA
ENDBRANCH   4   2
ENDBRANCH   5   4
ENDBRANCH   6   5
TORSDOF 8
ENDMDL
MODEL 3
REMARK VINA RESULT:      -4.9     14.220     16.724
REMARK  Name = 
REMARK  8 active torsions:
REMARK  status: ('A' for Active; 'I' for Inactive)
REMARK    1  A    between atoms: CD_2  and  CG_4
REMARK    2  A    between atoms: CG_4  and  CB_5
REMARK    3  A    between atoms: CB_5  and  CA_6
REMARK    4  A    between atoms: CA_6  and  N_7
REMARK    5  A    between atoms: CA_6  and  C_16
REMARK    6  A    between atoms: C_8  and  CA_10
REMARK    7  A    between atoms: CA_10  and  CB_12
REMARK    8  A    between atoms: CB_12  and  CG_13
REMARK                            x       y       z     vdW  Elec       q    Type
REMARK                         _______ _______ _______ _____ _____    ______ ____
ROOT
ATOM      6  CA  GLN A   2      23.684  55.975  -4.483  0.00  0.00    +0.000 C 
ENDROOT
BRANCH   6   7
ATOM      7  N   GLN A   2      24.239  56.038  -5.951  0.00  0.00    +0.000 NA
ATOM      8  C   ASP A   1      25.026  57.108  -6.388  0.00  0.00    +0.000 C 
ATOM      9  O   ASP A   1      25.909  57.420  -5.534  0.00  0.00    +0.000 OA
BRANCH   8  10
ATOM     10  CA  ASP A   1      25.594  56.607  -7.821  0.00  0.00    +0.000 C 
ATOM     11  N   ASP A   1      24.980  55.156  -7.757  0.00  0.00    +0.000 NA
BRANCH  10  12
ATOM     12  CB  ASP A   1      27.027  56.095  -7.203  0.00  0.00    +0.000 C 
BRANCH  12  13
ATOM     13  CG  ASP A   1      28.094  56.581  -8.108  0.00  0.00    +0.000 C 
ATOM     14  OD1 ASP A   1      28.727  55.687  -8.756  0.00  0.00    +0.000 OA
ATOM     15  OD2 ASP A   1      27.614  57.586  -8.963  0.00  0.00    +0.000 OA
ENDBRANCH  12  13
ENDBRANCH  10  12
ENDBRANCH   8  10
ENDBRANCH   6   7
BRANCH   6  16
ATOM     16  C   GLN A   2      22.741  54.708  -4.802  0.00  0.00    +0.000 C 
ATOM     17  O   GLN A   2      22.310  54.538  -5.923  0.00  0.00    +0.000 OA
ATOM     18  OXT GLN A   2      22.462  53.927  -3.698  0.00  0.00    +0.000 OA
ENDBRANCH   6  16
BRANCH   6   5
ATOM      5  CB  GLN A   2      22.499  57.089  -4.706  0.00  0.00    +0.000 C 
BRANCH   5   4
ATOM      4  CG  GLN A   2      21.855  57.383  -3.425  0.00  0.00    +0.000 C 
BRANCH   4   2
ATOM      1  NE2 GLN A   2      21.940  59.057  -2.583  0.00  0.00    +0.000 NA
ATOM      2  CD  GLN A   2      21.784  58.820  -3.032  0.00  0.00    +0.000 C 
ATOM      3  OE1 GLN A   2      21.201  59.616  -3.830  0.00  0.00    +0.000 OA
ENDBRANCH   4   2
ENDBRANCH   5   4
ENDBRANCH   6   5
TORSDOF 8
ENDMDL
MODEL 4
REMARK VINA RESULT:      -4.9     12.951     14.176
REMARK  Name = 
REMARK  8 active torsions:
REMARK  status: ('A' for Active; 'I' for Inactive)
REMARK    1  A    between atoms: CD_2  and  CG_4
REMARK    2  A    between atoms: CG_4  and  CB_5
REMARK    3  A    between atoms: CB_5  and  CA_6
REMARK    4  A    between atoms: CA_6  and  N_7
REMARK    5  A    between atoms: CA_6  and  C_16
REMARK    6  A    between atoms: C_8  and  CA_10
REMARK    7  A    between atoms: CA_10  and  CB_12
REMARK    8  A    between atoms: CB_12  and  CG_13
REMARK                            x       y       z     vdW  Elec       q    Type
REMARK                         _______ _______ _______ _____ _____    ______ ____
ROOT
ATOM      6  CA  GLN A   2      19.568  62.301  16.078  0.00  0.00    +0.000 C 
ENDROOT
BRANCH   6   7
ATOM      7  N   GLN A   2      18.948  63.507  15.286  0.00  0.00    +0.000 NA
ATOM      8  C   ASP A   1      19.548  64.769  15.290  0.00  0.00    +0.000 C 
ATOM      9  O   ASP A   1      20.802  64.692  15.129  0.00  0.00    +0.000 OA
BRANCH   8  10
ATOM     10  CA  ASP A   1      18.749  65.579  14.136  0.00  0.00    +0.000 C 
ATOM     11  N   ASP A   1      19.397  64.826  12.911  0.00  0.00    +0.000 NA
BRANCH  10  12
ATOM     12  CB  ASP A   1      19.856  66.789  14.058  0.00  0.00    +0.000 C 
BRANCH  12  13
ATOM     13  CG  ASP A   1      19.117  68.047  13.802  0.00  0.00    +0.000 C 
ATOM     14  OD1 ASP A   1      19.381  68.637  12.706  0.00  0.00    +0.000 OA
ATOM     15  OD2 ASP A   1      17.733  67.861  13.961  0.00  0.00    +0.000 OA
ENDBRANCH  12  13
ENDBRANCH  10  12
ENDBRANCH   8  10
ENDBRANCH   6   7
BRANCH   6  16
ATOM     16  C   GLN A   2      19.904  61.478  14.734  0.00  0.00    +0.000 C 
ATOM     17  O   GLN A   2      20.901  60.789  14.677  0.00  0.00    +0.000 OA
ATOM     18  OXT GLN A   2      19.003  61.689  13.709  0.00  0.00    +0.000 OA
ENDBRANCH   6  16
BRANCH   6   5
ATOM      5  CB  GLN A   2      18.142  61.535  16.356  0.00  0.00    +0.000 C 
BRANCH   5   4
ATOM      4  CG  GLN A   2      18.092  61.082  17.747  0.00  0.00    +0.000 C 
BRANCH   4   2
ATOM      1  NE2 GLN A   2      16.526  60.712  18.710  0.00  0.00    +0.000 NA
ATOM      2  CD  GLN A   2      16.749  61.077  18.395  0.00  0.00    +0.000 C 
ATOM      3  OE1 GLN A   2      15.962  62.032  18.116  0.00  0.00    +0.000 OA
ENDBRANCH   4   2
ENDBRANCH   5   4
ENDBRANCH   6   5
TORSDOF 8
ENDMDL
MODEL 5
REMARK VINA RESULT:      -4.9     12.410     14.712
REMARK  Name = 
REMARK  8 active torsions:
REMARK  status: ('A' for Active; 'I' for Inactive)
REMARK    1  A    between atoms: CD_2  and  CG_4
REMARK    2  A    between atoms: CG_4  and  CB_5
REMARK    3  A    between atoms: CB_5  and  CA_6
REMARK    4  A    between atoms: CA_6  and  N_7
REMARK    5  A    between atoms: CA_6  and  C_16
REMARK    6  A    between atoms: C_8  and  CA_10
REMARK    7  A    between atoms: CA_10  and  CB_12
REMARK    8  A    between atoms: CB_12  and  CG_13
REMARK                            x       y       z     vdW  Elec       q    Type
REMARK                         _______ _______ _______ _____ _____    ______ ____
ROOT
ATOM      6  CA  GLN A   2      17.183  68.709  11.960  0.00  0.00    +0.000 C 
ENDROOT
BRANCH   6   7
ATOM      7  N   GLN A   2      18.249  67.584  12.214  0.00  0.00    +0.000 NA
ATOM      8  C   ASP A   1      18.878  67.441  13.454  0.00  0.00    +0.000 C 
ATOM      9  O   ASP A   1      18.053  67.535  14.412  0.00  0.00    +0.000 OA
BRANCH   8  10
ATOM     10  CA  ASP A   1      19.642  66.016  13.336  0.00  0.00    +0.000 C 
ATOM     11  N   ASP A   1      18.436  65.221  12.702  0.00  0.00    +0.000 NA
BRANCH  10  12
ATOM     12  CB  ASP A   1      19.237  65.543  14.855  0.00  0.00    +0.000 C 
BRANCH  12  13
ATOM     13  CG  ASP A   1      19.687  64.141  15.014  0.00  0.00    +0.000 C 
ATOM     14  OD1 ASP A   1      20.811  63.976  15.586  0.00  0.00    +0.000 OA
ATOM     15  OD2 ASP A   1      18.689  63.355  15.614  0.00  0.00    +0.000 OA
ENDBRANCH  12  13
ENDBRANCH  10  12
ENDBRANCH   8  10
ENDBRANCH   6   7
BRANCH   6  16
ATOM     16  C   GLN A   2      16.276  67.759  11.027  0.00  0.00    +0.000 C 
ATOM     17  O   GLN A   2      16.064  68.065   9.872  0.00  0.00    +0.000 OA
ATOM     18  OXT GLN A   2      15.761  66.658  11.683  0.00  0.00    +0.000 OA
ENDBRANCH   6  16
BRANCH   6   5
ATOM      5  CB  GLN A   2      17.980  69.412  10.709  0.00  0.00    +0.000 C 
BRANCH   5   4
ATOM      4  CG  GLN A   2      17.948  70.867  10.863  0.00  0.00    +0.000 C 
BRANCH   4   2
ATOM      1  NE2 GLN A   2      17.346  72.166   9.651  0.00  0.00    +0.000 NA
ATOM      2  CD  GLN A   2      17.464  71.650   9.689  0.00  0.00    +0.000 C 
ATOM      3  OE1 GLN A   2      17.209  71.008   8.625  0.00  0.00    +0.000 OA
ENDBRANCH   4   2
ENDBRANCH   5   4
ENDBRANCH   6   5
TORSDOF 8
ENDMDL
MODEL 6
REMARK VINA RESULT:      -4.9     31.035     33.094
REMARK  Name = 
REMARK  8 active torsions:
REMARK  status: ('A' for Active; 'I' for Inactive)
REMARK    1  A    between atoms: CD_2  and  CG_4
REMARK    2  A    between atoms: CG_4  and  CB_5
REMARK    3  A    between atoms: CB_5  and  CA_6
REMARK    4  A    between atoms: CA_6  and  N_7
REMARK    5  A    between atoms: CA_6  and  C_16
REMARK    6  A    between atoms: C_8  and  CA_10
REMARK    7  A    between atoms: CA_10  and  CB_12
REMARK    8  A    between atoms: CB_12  and  CG_13
REMARK                            x       y       z     vdW  Elec       q    Type
REMARK                         _______ _______ _______ _____ _____    ______ ____
ROOT
ATOM      6  CA  GLN A   2       6.645  82.642  24.458  0.00  0.00    +0.000 C 
ENDROOT
BRANCH   6   7
ATOM      7  N   GLN A   2       6.273  82.964  25.949  0.00  0.00    +0.000 NA
ATOM      8  C   ASP A   1       5.064  82.540  26.508  0.00  0.00    +0.000 C 
ATOM      9  O   ASP A   1       4.805  81.337  26.206  0.00  0.00    +0.000 OA
BRANCH   8  10
ATOM     10  CA  ASP A   1       5.250  82.832  28.091  0.00  0.00    +0.000 C 
ATOM     11  N   ASP A   1       6.642  83.565  27.975  0.00  0.00    +0.000 NA
BRANCH  10  12
ATOM     12  CB  ASP A   1       5.967  81.385  28.391  0.00  0.00    +0.000 C 
BRANCH  12  13
ATOM     13  CG  ASP A   1       6.950  81.597  29.478  0.00  0.00    +0.000 C 
ATOM     14  OD1 ASP A   1       6.501  81.501  30.664  0.00  0.00    +0.000 OA
ATOM     15  OD2 ASP A   1       8.087  80.793  29.295  0.00  0.00    +0.000 OA
ENDBRANCH  12  13
ENDBRANCH  10  12
ENDBRANCH   8  10
ENDBRANCH   6   7
BRANCH   6  16
ATOM     16  C   GLN A   2       8.119  82.120  24.847  0.00  0.00    +0.000 C 
ATOM     17  O   GLN A   2       9.098  82.675  24.397  0.00  0.00    +0.000 OA
ATOM     18  OXT GLN A   2       8.120  81.001  25.657  0.00  0.00    +0.000 OA
ENDBRANCH   6  16
BRANCH   6   5
ATOM      5  CB  GLN A   2       7.133  84.163  24.076  0.00  0.00    +0.000 C 
BRANCH   5   4
ATOM      4  CG  GLN A   2       6.745  84.471  22.699  0.00  0.00    +0.000 C 
BRANCH   4   2
ATOM      1  NE2 GLN A   2       8.127  84.444  21.432  0.00  0.00    +0.000 NA
ATOM      2  CD  GLN A   2       7.741  84.144  21.639  0.00  0.00    +0.000 C 
ATOM      3  OE1 GLN A   2       7.636  83.017  21.067  0.00  0.00    +0.000 OA
ENDBRANCH   4   2
ENDBRANCH   5   4
ENDBRANCH   6   5
TORSDOF 8
ENDMDL
MODEL 7
REMARK VINA RESULT:      -4.9      3.527      6.620
REMARK  Name = 
REMARK  8 active torsions:
REMARK  status: ('A' for Active; 'I' for Inactive)
REMARK    1  A    between atoms: CD_2  and  CG_4
REMARK    2  A    between atoms: CG_4  and  CB_5
REMARK    3  A    between atoms: CB_5  and  CA_6
REMARK    4  A    between atoms: CA_6  and  N_7
REMARK    5  A    between atoms: CA_6  and  C_16
REMARK    6  A    between atoms: C_8  and  CA_10
REMARK    7  A    between atoms: CA_10  and  CB_12
REMARK    8  A    between atoms: CB_12  and  CG_13
REMARK                            x       y       z     vdW  Elec       q    Type
REMARK                         _______ _______ _______ _____ _____    ______ ____
ROOT
ATOM      6  CA  GLN A   2      10.811  57.220   6.559  0.00  0.00    +0.000 C 
ENDROOT
BRANCH   6   7
ATOM      7  N   GLN A   2       9.796  57.416   7.741  0.00  0.00    +0.000 NA
ATOM      8  C   ASP A   1       9.184  58.650   7.980  0.00  0.00    +0.000 C 
ATOM      9  O   ASP A   1       8.770  59.184   6.908  0.00  0.00    +0.000 OA
BRANCH   8  10
ATOM     10  CA  ASP A   1       8.035  58.305   9.070  0.00  0.00    +0.000 C 
ATOM     11  N   ASP A   1       8.307  56.752   9.128  0.00  0.00    +0.000 NA
BRANCH  10  12
ATOM     12  CB  ASP A   1       6.858  58.120   7.940  0.00  0.00    +0.000 C 
BRANCH  12  13
ATOM     13  CG  ASP A   1       5.689  58.911   8.389  0.00  0.00    +0.000 C 
ATOM     14  OD1 ASP A   1       4.738  58.251   8.917  0.00  0.00    +0.000 OA
ATOM     15  OD2 ASP A   1       6.086  59.979   9.210  0.00  0.00    +0.000 OA
ENDBRANCH  12  13
ENDBRANCH  10  12
ENDBRANCH   8  10
ENDBRANCH   6   7
BRANCH   6  16
ATOM     16  C   GLN A   2      11.297  55.782   7.101  0.00  0.00    +0.000 C 
ATOM     17  O   GLN A   2      11.451  54.861   6.326  0.00  0.00    +0.000 OA
ATOM     18  OXT GLN A   2      11.451  55.724   8.472  0.00  0.00    +0.000 OA
ENDBRANCH   6  16
BRANCH   6   5
ATOM      5  CB  GLN A   2      12.041  58.054   7.257  0.00  0.00    +0.000 C 
BRANCH   5   4
ATOM      4  CG  GLN A   2      12.596  59.006   6.294  0.00  0.00    +0.000 C 
BRANCH   4   2
ATOM      1  NE2 GLN A   2      13.601  60.186   7.349  0.00  0.00    +0.000 NA
ATOM      2  CD  GLN A   2      13.501  60.056   6.845  0.00  0.00    +0.000 C 
ATOM      3  OE1 GLN A   2      14.076  60.824   6.016  0.00  0.00    +0.000 OA
ENDBRANCH   4   2
ENDBRANCH   5   4
ENDBRANCH   6   5
TORSDOF 8
ENDMDL
MODEL 8
REMARK VINA RESULT:      -4.8     14.224     17.775
REMARK  Name = 
REMARK  8 active torsions:
REMARK  status: ('A' for Active; 'I' for Inactive)
REMARK    1  A    between atoms: CD_2  and  CG_4
REMARK    2  A    between atoms: CG_4  and  CB_5
REMARK    3  A    between atoms: CB_5  and  CA_6
REMARK    4  A    between atoms: CA_6  and  N_7
REMARK    5  A    between atoms: CA_6  and  C_16
REMARK    6  A    between atoms: C_8  and  CA_10
REMARK    7  A    between atoms: CA_10  and  CB_12
REMARK    8  A    between atoms: CB_12  and  CG_13
REMARK                            x       y       z     vdW  Elec       q    Type
REMARK                         _______ _______ _______ _____ _____    ______ ____
ROOT
ATOM      6  CA  GLN A   2      17.944  61.981  18.711  0.00  0.00    +0.000 C 
ENDROOT
BRANCH   6   7
ATOM      7  N   GLN A   2      18.126  61.164  20.040  0.00  0.00    +0.000 NA
ATOM      8  C   ASP A   1      19.069  61.537  21.002  0.00  0.00    +0.000 C 
ATOM      9  O   ASP A   1      19.055  62.786  21.214  0.00  0.00    +0.000 OA
BRANCH   8  10
ATOM     10  CA  ASP A   1      18.698  60.613  22.282  0.00  0.00    +0.000 C 
ATOM     11  N   ASP A   1      17.194  60.354  21.882  0.00  0.00    +0.000 NA
BRANCH  10  12
ATOM     12  CB  ASP A   1      18.291  61.891  23.230  0.00  0.00    +0.000 C 
BRANCH  12  13
ATOM     13  CG  ASP A   1      18.619  61.523  24.627  0.00  0.00    +0.000 C 
ATOM     14  OD1 ASP A   1      17.663  61.046  25.318  0.00  0.00    +0.000 OA
ATOM     15  OD2 ASP A   1      19.751  60.694  24.679  0.00  0.00    +0.000 OA
ENDBRANCH  12  13
ENDBRANCH  10  12
ENDBRANCH   8  10
ENDBRANCH   6   7
BRANCH   6  16
ATOM     16  C   GLN A   2      16.478  61.373  18.436  0.00  0.00    +0.000 C 
ATOM     17  O   GLN A   2      16.254  60.202  18.660  0.00  0.00    +0.000 OA
ATOM     18  OXT GLN A   2      15.588  62.282  17.897  0.00  0.00    +0.000 OA
ENDBRANCH   6  16
BRANCH   6   5
ATOM      5  CB  GLN A   2      18.724  60.905  17.747  0.00  0.00    +0.000 C 
BRANCH   5   4
ATOM      4  CG  GLN A   2      18.565  61.297  16.346  0.00  0.00    +0.000 C 
BRANCH   4   2
ATOM      1  NE2 GLN A   2      19.890  62.538  15.875  0.00  0.00    +0.000 NA
ATOM      2  CD  GLN A   2      19.364  62.472  15.891  0.00  0.00    +0.000 C 
ATOM      3  OE1 GLN A   2      18.727  63.516  15.554  0.00  0.00    +0.000 OA
ENDBRANCH   4   2
ENDBRANCH   5   4
ENDBRANCH   6   5
TORSDOF 8
ENDMDL
MODEL 9
REMARK VINA RESULT:      -4.7      5.451      6.883
REMARK  Name = 
REMARK  8 active torsions:
REMARK  status: ('A' for Active; 'I' for Inactive)
REMARK    1  A    between atoms: CD_2  and  CG_4
REMARK    2  A    between atoms: CG_4  and  CB_5
REMARK    3  A    between atoms: CB_5  and  CA_6
REMARK    4  A    between atoms: CA_6  and  N_7
REMARK    5  A    between atoms: CA_6  and  C_16
REMARK    6  A    between atoms: C_8  and  CA_10
REMARK    7  A    between atoms: CA_10  and  CB_12
REMARK    8  A    between atoms: CB_12  and  CG_13
REMARK                            x       y       z     vdW  Elec       q    Type
REMARK                         _______ _______ _______ _____ _____    ______ ____
ROOT
ATOM      6  CA  GLN A   2       8.247  58.602   8.580  0.00  0.00    +0.000 C 
ENDROOT
BRANCH   6   7
ATOM      7  N   GLN A   2       6.882  58.716   7.813  0.00  0.00    +0.000 NA
ATOM      8  C   ASP A   1       5.689  58.998   8.485  0.00  0.00    +0.000 C 
ATOM      9  O   ASP A   1       5.836  59.931   9.329  0.00  0.00    +0.000 OA
BRANCH   8  10
ATOM     10  CA  ASP A   1       4.638  59.304   7.289  0.00  0.00    +0.000 C 
ATOM     11  N   ASP A   1       5.381  58.464   6.181  0.00  0.00    +0.000 NA
BRANCH  10  12
ATOM     12  CB  ASP A   1       5.389  60.691   6.830  0.00  0.00    +0.000 C 
BRANCH  12  13
ATOM     13  CG  ASP A   1       4.333  61.671   6.489  0.00  0.00    +0.000 C 
ATOM     14  OD1 ASP A   1       3.954  62.435   7.433  0.00  0.00    +0.000 OA
ATOM     15  OD2 ASP A   1       4.678  62.408   5.344  0.00  0.00    +0.000 OA
ENDBRANCH  12  13
ENDBRANCH  10  12
ENDBRANCH   8  10
ENDBRANCH   6   7
BRANCH   6  16
ATOM     16  C   GLN A   2       8.921  59.798   7.736  0.00  0.00    +0.000 C 
ATOM     17  O   GLN A   2       9.607  59.547   6.768  0.00  0.00    +0.000 OA
ATOM     18  OXT GLN A   2       8.677  61.055   8.255  0.00  0.00    +0.000 OA
ENDBRANCH   6  16
BRANCH   6   5
ATOM      5  CB  GLN A   2       8.866  57.405   7.641  0.00  0.00    +0.000 C 
BRANCH   5   4
ATOM      4  CG  GLN A   2       9.602  56.456   8.478  0.00  0.00    +0.000 C 
BRANCH   4   2
ATOM      1  NE2 GLN A   2      11.394  56.968   8.268  0.00  0.00    +0.000 NA
ATOM      2  CD  GLN A   2      11.086  56.602   8.498  0.00  0.00    +0.000 C 
ATOM      3  OE1 GLN A   2      11.754  55.693   9.078  0.00  0.00    +0.000 OA
ENDBRANCH   4   2
ENDBRANCH   5   4
ENDBRANCH   6   5
TORSDOF 8
ENDMDL
MODEL 10
REMARK VINA RESULT:      -4.7     17.682     19.392
REMARK  Name = 
REMARK  8 active torsions:
REMARK  status: ('A' for Active; 'I' for Inactive)
REMARK    1  A    between atoms: CD_2  and  CG_4
REMARK    2  A    between atoms: CG_4  and  CB_5
REMARK    3  A    between atoms: CB_5  and  CA_6
REMARK    4  A    between atoms: CA_6  and  N_7
REMARK    5  A    between atoms: CA_6  and  C_16
REMARK    6  A    between atoms: C_8  and  CA_10
REMARK    7  A    between atoms: CA_10  and  CB_12
REMARK    8  A    between atoms: CB_12  and  CG_13
REMARK                            x       y       z     vdW  Elec       q    Type
REMARK                         _______ _______ _______ _____ _____    ______ ____
ROOT
ATOM      6  CA  GLN A   2       7.341  54.445  21.197  0.00  0.00    +0.000 C 
ENDROOT
BRANCH   6   7
ATOM      7  N   GLN A   2       5.960  54.919  21.775  0.00  0.00    +0.000 NA
ATOM      8  C   ASP A   1       5.527  56.241  21.637  0.00  0.00    +0.000 C 
ATOM      9  O   ASP A   1       5.725  56.679  20.465  0.00  0.00    +0.000 OA
BRANCH   8  10
ATOM     10  CA  ASP A   1       3.976  56.187  22.104  0.00  0.00    +0.000 C 
ATOM     11  N   ASP A   1       3.967  57.577  22.850  0.00  0.00    +0.000 NA
BRANCH  10  12
ATOM     12  CB  ASP A   1       4.303  55.374  23.493  0.00  0.00    +0.000 C 
BRANCH  12  13
ATOM     13  CG  ASP A   1       3.109  54.558  23.817  0.00  0.00    +0.000 C 
ATOM     14  OD1 ASP A   1       2.020  55.198  23.968  0.00  0.00    +0.000 OA
ATOM     15  OD2 ASP A   1       2.957  53.501  22.905  0.00  0.00    +0.000 OA
ENDBRANCH  12  13
ENDBRANCH  10  12
ENDBRANCH   8  10
ENDBRANCH   6   7
BRANCH   6  16
ATOM     16  C   GLN A   2       7.073  52.904  21.585  0.00  0.00    +0.000 C 
ATOM     17  O   GLN A   2       6.101  52.604  22.246  0.00  0.00    +0.000 OA
ATOM     18  OXT GLN A   2       8.054  52.037  21.144  0.00  0.00    +0.000 OA
ENDBRANCH   6  16
BRANCH   6   5
ATOM      5  CB  GLN A   2       8.210  54.779  22.550  0.00  0.00    +0.000 C 
BRANCH   5   4
ATOM      4  CG  GLN A   2       9.088  55.922  22.298  0.00  0.00    +0.000 C 
BRANCH   4   2
ATOM      1  NE2 GLN A   2      10.444  55.748  23.582  0.00  0.00    +0.000 NA
ATOM      2  CD  GLN A   2      10.315  56.016  23.142  0.00  0.00    +0.000 C 
ATOM      3  OE1 GLN A   2      11.164  56.909  22.841  0.00  0.00    +0.000 OA
ENDBRANCH   4   2
ENDBRANCH   5   4
ENDBRANCH   6   5
TORSDOF 8
ENDMDL
