MODEL 1
REMARK VINA RESULT:      -5.4      0.000      0.000
REMARK  Name = 
REMARK  9 active torsions:
REMARK  status: ('A' for Active; 'I' for Inactive)
REMARK    1  A    between atoms: CE_2  and  CD_3
REMARK    2  A    between atoms: CD_3  and  CG_4
REMARK    3  A    between atoms: CG_4  and  CB_5
REMARK    4  A    between atoms: CB_5  and  CA_6
REMARK    5  A    between atoms: CA_6  and  N_7
REMARK    6  A    between atoms: CA_6  and  C_16
REMARK    7  A    between atoms: C_8  and  CA_10
REMARK    8  A    between atoms: CA_10  and  CB_12
REMARK    9  A    between atoms: CB_12  and  CG_13
REMARK                            x       y       z     vdW  Elec       q    Type
REMARK                         _______ _______ _______ _____ _____    ______ ____
ROOT
ATOM      6  CA  LYS A   2      26.131  80.697 -23.603  0.00  0.00    +0.000 C 
ENDROOT
BRANCH   6   7
ATOM      7  N   LYS A   2      27.109  81.332 -24.690  0.00  0.00    +0.000 NA
ATOM      8  C   ASP A   1      27.321  80.318 -25.687  0.00  0.00    +0.000 C 
ATOM      9  O   ASP A   1      26.278  80.059 -26.364  0.00  0.00    +0.000 OA
BRANCH   8  10
ATOM     10  CA  ASP A   1      28.496  80.845 -26.690  0.00  0.00    +0.000 C 
ATOM     11  N   ASP A   1      27.874  82.311 -26.745  0.00  0.00    +0.000 NA
BRANCH  10  12
ATOM     12  CB  ASP A   1      27.639  80.378 -28.036  0.00  0.00    +0.000 C 
BRANCH  12  13
ATOM     13  CG  ASP A   1      28.604  79.520 -28.789  0.00  0.00    +0.000 C 
ATOM     14  OD1 ASP A   1      29.352  80.112 -29.612  0.00  0.00    +0.000 OA
ATOM     15  OD2 ASP A   1      29.166  78.459 -28.093  0.00  0.00    +0.000 OA
ENDBRANCH  12  13
ENDBRANCH  10  12
ENDBRANCH   8  10
ENDBRANCH   6   7
BRANCH   6  16
ATOM     16  C   LYS A   2      25.149  81.998 -23.627  0.00  0.00    +0.000 C 
ATOM     17  O   LYS A   2      25.677  83.095 -23.488  0.00  0.00    +0.000 OA
ATOM     18  OXT LYS A   2      23.813  81.704 -23.741  0.00  0.00    +0.000 OA
ENDBRANCH   6  16
BRANCH   6   5
ATOM      5  CB  LYS A   2      27.047  81.279 -22.340  0.00  0.00    +0.000 C 
BRANCH   5   4
ATOM      4  CG  LYS A   2      27.297  80.093 -21.483  0.00  0.00    +0.000 C 
BRANCH   4   3
ATOM      3  CD  LYS A   2      26.824  78.777 -21.982  0.00  0.00    +0.000 C 
BRANCH   3   2
ATOM      1  NZ  LYS A   2      27.554  77.360 -21.022  0.00  0.00    +0.000 NA
ATOM      2  CE  LYS A   2      27.636  77.739 -21.206  0.00  0.00    +0.000 C 
ENDBRANCH   3   2
ENDBRANCH   4   3
ENDBRANCH   5   4
ENDBRANCH   6   5
TORSDOF 9
ENDMDL
MODEL 2
REMARK VINA RESULT:      -5.2      1.992      2.612
REMARK  Name = 
REMARK  9 active torsions:
REMARK  status: ('A' for Active; 'I' for Inactive)
REMARK    1  A    between atoms: CE_2  and  CD_3
REMARK    2  A    between atoms: CD_3  and  CG_4
REMARK    3  A    between atoms: CG_4  and  CB_5
REMARK    4  A    between atoms: CB_5  and  CA_6
REMARK    5  A    between atoms: CA_6  and  N_7
REMARK    6  A    between atoms: CA_6  and  C_16
REMARK    7  A    between atoms: C_8  and  CA_10
REMARK    8  A    between atoms: CA_10  and  CB_12
REMARK    9  A    between atoms: CB_12  and  CG_13
REMARK                            x       y       z     vdW  Elec       q    Type
REMARK                         _______ _______ _______ _____ _____    ______ ____
ROOT
ATOM      6  CA  LYS A   2      27.015  82.417 -25.176  0.00  0.00    +0.000 C 
ENDROOT
BRANCH   6   7
ATOM      7  N   LYS A   2      27.500  82.166 -26.674  0.00  0.00    +0.000 NA
ATOM      8  C   ASP A   1      26.446  81.438 -27.326  0.00  0.00    +0.000 C 
ATOM      9  O   ASP A   1      25.389  82.125 -27.483  0.00  0.00    +0.000 OA
BRANCH   8  10
ATOM     10  CA  ASP A   1      27.000  80.961 -28.785  0.00  0.00    +0.000 C 
ATOM     11  N   ASP A   1      26.035  79.693 -28.803  0.00  0.00    +0.000 NA
BRANCH  10  12
ATOM     12  CB  ASP A   1      28.228  80.077 -28.097  0.00  0.00    +0.000 C 
BRANCH  12  13
ATOM     13  CG  ASP A   1      28.782  79.291 -29.241  0.00  0.00    +0.000 C 
ATOM     14  OD1 ASP A   1      29.256  79.958 -30.198  0.00  0.00    +0.000 OA
ATOM     15  OD2 ASP A   1      29.438  78.110 -28.924  0.00  0.00    +0.000 OA
ENDBRANCH  12  13
ENDBRANCH  10  12
ENDBRANCH   8  10
ENDBRANCH   6   7
BRANCH   6  16
ATOM     16  C   LYS A   2      28.482  82.959 -24.718  0.00  0.00    +0.000 C 
ATOM     17  O   LYS A   2      29.430  82.672 -25.439  0.00  0.00    +0.000 OA
ATOM     18  OXT LYS A   2      28.495  83.637 -23.525  0.00  0.00    +0.000 OA
ENDBRANCH   6  16
BRANCH   6   5
ATOM      5  CB  LYS A   2      27.342  80.844 -24.736  0.00  0.00    +0.000 C 
BRANCH   5   4
ATOM      4  CG  LYS A   2      26.381  80.555 -23.642  0.00  0.00    +0.000 C 
BRANCH   4   3
ATOM      3  CD  LYS A   2      26.907  80.549 -22.254  0.00  0.00    +0.000 C 
BRANCH   3   2
ATOM      1  NZ  LYS A   2      26.744  78.764 -21.757  0.00  0.00    +0.000 NA
ATOM      2  CE  LYS A   2      27.019  79.071 -21.875  0.00  0.00    +0.000 C 
ENDBRANCH   3   2
ENDBRANCH   4   3
ENDBRANCH   5   4
ENDBRANCH   6   5
TORSDOF 9
ENDMDL
MODEL 3
REMARK VINA RESULT:      -4.8     43.955     47.030
REMARK  Name = 
REMARK  9 active torsions:
REMARK  status: ('A' for Active; 'I' for Inactive)
REMARK    1  A    between atoms: CE_2  and  CD_3
REMARK    2  A    between atoms: CD_3  and  CG_4
REMARK    3  A    between atoms: CG_4  and  CB_5
REMARK    4  A    between atoms: CB_5  and  CA_6
REMARK    5  A    between atoms: CA_6  and  N_7
REMARK    6  A    between atoms: CA_6  and  C_16
REMARK    7  A    between atoms: C_8  and  CA_10
REMARK    8  A    between atoms: CA_10  and  CB_12
REMARK    9  A    between atoms: CB_12  and  CG_13
REMARK                            x       y       z     vdW  Elec       q    Type
REMARK                         _______ _______ _______ _____ _____    ______ ____
ROOT
ATOM      6  CA  LYS A   2      18.189  60.899  18.142  0.00  0.00    +0.000 C 
ENDROOT
BRANCH   6   7
ATOM      7  N   LYS A   2      18.154  61.263  16.590  0.00  0.00    +0.000 NA
ATOM      8  C   ASP A   1      19.524  61.355  16.165  0.00  0.00    +0.000 C 
ATOM      9  O   ASP A   1      20.127  60.237  16.179  0.00  0.00    +0.000 OA
BRANCH   8  10
ATOM     10  CA  ASP A   1      19.534  61.952  14.646  0.00  0.00    +0.000 C 
ATOM     11  N   ASP A   1      20.636  60.901  14.176  0.00  0.00    +0.000 NA
BRANCH  10  12
ATOM     12  CB  ASP A   1      20.698  63.075  15.031  0.00  0.00    +0.000 C 
BRANCH  12  13
ATOM     13  CG  ASP A   1      19.916  64.214  15.602  0.00  0.00    +0.000 C 
ATOM     14  OD1 ASP A   1      20.578  65.094  16.213  0.00  0.00    +0.000 OA
ATOM     15  OD2 ASP A   1      18.833  64.659  14.857  0.00  0.00    +0.000 OA
ENDBRANCH  12  13
ENDBRANCH  10  12
ENDBRANCH   8  10
ENDBRANCH   6   7
BRANCH   6  16
ATOM     16  C   LYS A   2      16.570  61.026  18.278  0.00  0.00    +0.000 C 
ATOM     17  O   LYS A   2      16.074  62.116  18.018  0.00  0.00    +0.000 OA
ATOM     18  OXT LYS A   2      15.944  59.893  18.734  0.00  0.00    +0.000 OA
ENDBRANCH   6  16
BRANCH   6   5
ATOM      5  CB  LYS A   2      18.455  62.485  18.577  0.00  0.00    +0.000 C 
BRANCH   5   4
ATOM      4  CG  LYS A   2      18.896  62.415  19.992  0.00  0.00    +0.000 C 
BRANCH   4   3
ATOM      3  CD  LYS A   2      19.555  61.163  20.442  0.00  0.00    +0.000 C 
BRANCH   3   2
ATOM      1  NZ  LYS A   2      18.889  60.477  22.038  0.00  0.00    +0.000 NA
ATOM      2  CE  LYS A   2      18.827  60.766  21.727  0.00  0.00    +0.000 C 
ENDBRANCH   3   2
ENDBRANCH   4   3
ENDBRANCH   5   4
ENDBRANCH   6   5
TORSDOF 9
ENDMDL
MODEL 4
REMARK VINA RESULT:      -4.7      3.130      6.907
REMARK  Name = 
REMARK  9 active torsions:
REMARK  status: ('A' for Active; 'I' for Inactive)
REMARK    1  A    between atoms: CE_2  and  CD_3
REMARK    2  A    between atoms: CD_3  and  CG_4
REMARK    3  A    between atoms: CG_4  and  CB_5
REMARK    4  A    between atoms: CB_5  and  CA_6
REMARK    5  A    between atoms: CA_6  and  N_7
REMARK    6  A    between atoms: CA_6  and  C_16
REMARK    7  A    between atoms: C_8  and  CA_10
REMARK    8  A    between atoms: CA_10  and  CB_12
REMARK    9  A    between atoms: CB_12  and  CG_13
REMARK                            x       y       z     vdW  Elec       q    Type
REMARK                         _______ _______ _______ _____ _____    ______ ____
ROOT
ATOM      6  CA  LYS A   2      26.777  81.218 -29.380  0.00  0.00    +0.000 C 
ENDROOT
BRANCH   6   7
ATOM      7  N   LYS A   2      26.332  81.185 -27.850  0.00  0.00    +0.000 NA
ATOM      8  C   ASP A   1      27.520  81.427 -27.077  0.00  0.00    +0.000 C 
ATOM      9  O   ASP A   1      27.973  82.606 -27.214  0.00  0.00    +0.000 OA
BRANCH   8  10
ATOM     10  CA  ASP A   1      27.152  81.171 -25.507  0.00  0.00    +0.000 C 
ATOM     11  N   ASP A   1      26.077  80.056 -25.880  0.00  0.00    +0.000 NA
BRANCH  10  12
ATOM     12  CB  ASP A   1      25.993  82.363 -25.522  0.00  0.00    +0.000 C 
BRANCH  12  13
ATOM     13  CG  ASP A   1      26.313  83.181 -24.312  0.00  0.00    +0.000 C 
ATOM     14  OD1 ASP A   1      26.597  84.391 -24.517  0.00  0.00    +0.000 OA
ATOM     15  OD2 ASP A   1      25.588  82.901 -23.163  0.00  0.00    +0.000 OA
ENDBRANCH  12  13
ENDBRANCH  10  12
ENDBRANCH   8  10
ENDBRANCH   6   7
BRANCH   6  16
ATOM     16  C   LYS A   2      25.422  80.452 -29.862  0.00  0.00    +0.000 C 
ATOM     17  O   LYS A   2      25.271  79.297 -29.481  0.00  0.00    +0.000 OA
ATOM     18  OXT LYS A   2      24.620  81.182 -30.703  0.00  0.00    +0.000 OA
ENDBRANCH   6  16
BRANCH   6   5
ATOM      5  CB  LYS A   2      27.648  79.807 -29.227  0.00  0.00    +0.000 C 
BRANCH   5   4
ATOM      4  CG  LYS A   2      28.753  79.942 -30.208  0.00  0.00    +0.000 C 
BRANCH   4   3
ATOM      3  CD  LYS A   2      28.578  79.291 -31.531  0.00  0.00    +0.000 C 
BRANCH   3   2
ATOM      1  NZ  LYS A   2      30.237  78.929 -32.292  0.00  0.00    +0.000 NA
ATOM      2  CE  LYS A   2      29.980  79.238 -32.140  0.00  0.00    +0.000 C 
ENDBRANCH   3   2
ENDBRANCH   4   3
ENDBRANCH   5   4
ENDBRANCH   6   5
TORSDOF 9
ENDMDL
MODEL 5
REMARK VINA RESULT:      -4.7     59.810     62.691
REMARK  Name = 
REMARK  9 active torsions:
REMARK  status: ('A' for Active; 'I' for Inactive)
REMARK    1  A    between atoms: CE_2  and  CD_3
REMARK    2  A    between atoms: CD_3  and  CG_4
REMARK    3  A    between atoms: CG_4  and  CB_5
REMARK    4  A    between atoms: CB_5  and  CA_6
REMARK    5  A    between atoms: CA_6  and  N_7
REMARK    6  A    between atoms: CA_6  and  C_16
REMARK    7  A    between atoms: C_8  and  CA_10
REMARK    8  A    between atoms: CA_10  and  CB_12
REMARK    9  A    between atoms: CB_12  and  CG_13
REMARK                            x       y       z     vdW  Elec       q    Type
REMARK                         _______ _______ _______ _____ _____    ______ ____
ROOT
ATOM      6  CA  LYS A   2     -10.527  72.974  22.395  0.00  0.00    +0.000 C 
ENDROOT
BRANCH   6   7
ATOM      7  N   LYS A   2     -10.740  71.439  22.768  0.00  0.00    +0.000 NA
ATOM      8  C   ASP A   1     -11.814  70.965  21.938  0.00  0.00    +0.000 C 
ATOM      9  O   ASP A   1     -11.509  70.917  20.706  0.00  0.00    +0.000 OA
BRANCH   8  10
ATOM     10  CA  ASP A   1     -12.217  69.469  22.452  0.00  0.00    +0.000 C 
ATOM     11  N   ASP A   1     -13.774  69.803  22.390  0.00  0.00    +0.000 NA
BRANCH  10  12
ATOM     12  CB  ASP A   1     -12.132  69.929  24.047  0.00  0.00    +0.000 C 
BRANCH  12  13
ATOM     13  CG  ASP A   1     -12.434  68.670  24.795  0.00  0.00    +0.000 C 
ATOM     14  OD1 ASP A   1     -11.441  68.017  25.210  0.00  0.00    +0.000 OA
ATOM     15  OD2 ASP A   1     -13.552  68.688  25.617  0.00  0.00    +0.000 OA
ENDBRANCH  12  13
ENDBRANCH  10  12
ENDBRANCH   8  10
ENDBRANCH   6   7
BRANCH   6  16
ATOM     16  C   LYS A   2      -8.922  72.775  22.199  0.00  0.00    +0.000 C 
ATOM     17  O   LYS A   2      -8.335  72.115  23.049  0.00  0.00    +0.000 OA
ATOM     18  OXT LYS A   2      -8.392  73.430  21.116  0.00  0.00    +0.000 OA
ENDBRANCH   6  16
BRANCH   6   5
ATOM      5  CB  LYS A   2     -10.384  73.412  23.995  0.00  0.00    +0.000 C 
BRANCH   5   4
ATOM      4  CG  LYS A   2     -11.655  74.112  24.306  0.00  0.00    +0.000 C 
BRANCH   4   3
ATOM      3  CD  LYS A   2     -12.592  73.444  25.245  0.00  0.00    +0.000 C 
BRANCH   3   2
ATOM      1  NZ  LYS A   2     -14.131  72.902  24.352  0.00  0.00    +0.000 NA
ATOM      2  CE  LYS A   2     -13.879  73.236  24.446  0.00  0.00    +0.000 C 
ENDBRANCH   3   2
ENDBRANCH   4   3
ENDBRANCH   5   4
ENDBRANCH   6   5
TORSDOF 9
ENDMDL
MODEL 6
REMARK VINA RESULT:      -4.6     28.523     30.877
REMARK  Name = 
REMARK  9 active torsions:
REMARK  status: ('A' for Active; 'I' for Inactive)
REMARK    1  A    between atoms: CE_2  and  CD_3
REMARK    2  A    between atoms: CD_3  and  CG_4
REMARK    3  A    between atoms: CG_4  and  CB_5
REMARK    4  A    between atoms: CB_5  and  CA_6
REMARK    5  A    between atoms: CA_6  and  N_7
REMARK    6  A    between atoms: CA_6  and  C_16
REMARK    7  A    between atoms: C_8  and  CA_10
REMARK    8  A    between atoms: CA_10  and  CB_12
REMARK    9  A    between atoms: CB_12  and  CG_13
REMARK                            x       y       z     vdW  Elec       q    Type
REMARK                         _______ _______ _______ _____ _____    ______ ____
ROOT
ATOM      6  CA  LYS A   2      25.616  52.801 -15.632  0.00  0.00    +0.000 C 
ENDROOT
BRANCH   6   7
ATOM      7  N   LYS A   2      26.159  52.044 -14.338  0.00  0.00    +0.000 NA
ATOM      8  C   ASP A   1      27.486  51.594 -14.660  0.00  0.00    +0.000 C 
ATOM      9  O   ASP A   1      28.316  52.545 -14.799  0.00  0.00    +0.000 OA
BRANCH   8  10
ATOM     10  CA  ASP A   1      27.986  50.617 -13.452  0.00  0.00    +0.000 C 
ATOM     11  N   ASP A   1      29.456  51.231 -13.483  0.00  0.00    +0.000 NA
BRANCH  10  12
ATOM     12  CB  ASP A   1      28.412  49.415 -14.519  0.00  0.00    +0.000 C 
BRANCH  12  13
ATOM     13  CG  ASP A   1      27.419  48.331 -14.246  0.00  0.00    +0.000 C 
ATOM     14  OD1 ASP A   1      27.382  47.387 -15.079  0.00  0.00    +0.000 OA
ATOM     15  OD2 ASP A   1      27.221  47.992 -12.915  0.00  0.00    +0.000 OA
ENDBRANCH  12  13
ENDBRANCH  10  12
ENDBRANCH   8  10
ENDBRANCH   6   7
BRANCH   6  16
ATOM     16  C   LYS A   2      24.340  53.412 -14.822  0.00  0.00    +0.000 C 
ATOM     17  O   LYS A   2      24.322  54.624 -14.645  0.00  0.00    +0.000 OA
ATOM     18  OXT LYS A   2      23.446  52.473 -14.371  0.00  0.00    +0.000 OA
ENDBRANCH   6  16
BRANCH   6   5
ATOM      5  CB  LYS A   2      24.779  51.458 -16.149  0.00  0.00    +0.000 C 
BRANCH   5   4
ATOM      4  CG  LYS A   2      25.143  51.320 -17.581  0.00  0.00    +0.000 C 
BRANCH   4   3
ATOM      3  CD  LYS A   2      26.141  52.274 -18.128  0.00  0.00    +0.000 C 
BRANCH   3   2
ATOM      1  NZ  LYS A   2      26.082  52.474 -19.977  0.00  0.00    +0.000 NA
ATOM      2  CE  LYS A   2      25.897  52.286 -19.638  0.00  0.00    +0.000 C 
ENDBRANCH   3   2
ENDBRANCH   4   3
ENDBRANCH   5   4
ENDBRANCH   6   5
TORSDOF 9
ENDMDL
MODEL 7
REMARK VINA RESULT:      -4.6     40.811     44.058
REMARK  Name = 
REMARK  9 active torsions:
REMARK  status: ('A' for Active; 'I' for Inactive)
REMARK    1  A    between atoms: CE_2  and  CD_3
REMARK    2  A    between atoms: CD_3  and  CG_4
REMARK    3  A    between atoms: CG_4  and  CB_5
REMARK    4  A    between atoms: CB_5  and  CA_6
REMARK    5  A    between atoms: CA_6  and  N_7
REMARK    6  A    between atoms: CA_6  and  C_16
REMARK    7  A    between atoms: C_8  and  CA_10
REMARK    8  A    between atoms: CA_10  and  CB_12
REMARK    9  A    between atoms: CB_12  and  CG_13
REMARK                            x       y       z     vdW  Elec       q    Type
REMARK                         _______ _______ _______ _____ _____    ______ ____
ROOT
ATOM      6  CA  LYS A   2      10.068  56.896   6.422  0.00  0.00    +0.000 C 
ENDROOT
BRANCH   6   7
ATOM      7  N   LYS A   2       9.127  56.942   7.707  0.00  0.00    +0.000 NA
ATOM      8  C   ASP A   1       7.878  57.510   7.276  0.00  0.00    +0.000 C 
ATOM      9  O   ASP A   1       7.235  56.757   6.482  0.00  0.00    +0.000 OA
BRANCH   8  10
ATOM     10  CA  ASP A   1       6.973  57.789   8.605  0.00  0.00    +0.000 C 
ATOM     11  N   ASP A   1       8.207  58.427   9.385  0.00  0.00    +0.000 NA
BRANCH  10  12
ATOM     12  CB  ASP A   1       7.303  56.280   9.220  0.00  0.00    +0.000 C 
BRANCH  12  13
ATOM     13  CG  ASP A   1       6.272  56.099  10.287  0.00  0.00    +0.000 C 
ATOM     14  OD1 ASP A   1       6.695  56.075  11.473  0.00  0.00    +0.000 OA
ATOM     15  OD2 ASP A   1       5.047  56.718  10.079  0.00  0.00    +0.000 OA
ENDBRANCH  12  13
ENDBRANCH  10  12
ENDBRANCH   8  10
ENDBRANCH   6   7
BRANCH   6  16
ATOM     16  C   LYS A   2      11.024  55.751   7.078  0.00  0.00    +0.000 C 
ATOM     17  O   LYS A   2      11.382  54.838   6.343  0.00  0.00    +0.000 OA
ATOM     18  OXT LYS A   2      11.274  55.912   8.418  0.00  0.00    +0.000 OA
ENDBRANCH   6  16
BRANCH   6   5
ATOM      5  CB  LYS A   2      11.008  58.151   6.983  0.00  0.00    +0.000 C 
BRANCH   5   4
ATOM      4  CG  LYS A   2      11.521  58.810   5.756  0.00  0.00    +0.000 C 
BRANCH   4   3
ATOM      3  CD  LYS A   2      12.994  58.879   5.582  0.00  0.00    +0.000 C 
BRANCH   3   2
ATOM      1  NZ  LYS A   2      13.629  60.460   6.330  0.00  0.00    +0.000 NA
ATOM      2  CE  LYS A   2      13.439  60.085   6.412  0.00  0.00    +0.000 C 
ENDBRANCH   3   2
ENDBRANCH   4   3
ENDBRANCH   5   4
ENDBRANCH   6   5
TORSDOF 9
ENDMDL
MODEL 8
REMARK VINA RESULT:      -4.5     38.776     41.748
REMARK  Name = 
REMARK  9 active torsions:
REMARK  status: ('A' for Active; 'I' for Inactive)
REMARK    1  A    between atoms: CE_2  and  CD_3
REMARK    2  A    between atoms: CD_3  and  CG_4
REMARK    3  A    between atoms: CG_4  and  CB_5
REMARK    4  A    between atoms: CB_5  and  CA_6
REMARK    5  A    between atoms: CA_6  and  N_7
REMARK    6  A    between atoms: CA_6  and  C_16
REMARK    7  A    between atoms: C_8  and  CA_10
REMARK    8  A    between atoms: CA_10  and  CB_12
REMARK    9  A    between atoms: CB_12  and  CG_13
REMARK                            x       y       z     vdW  Elec       q    Type
REMARK                         _______ _______ _______ _____ _____    ______ ____
ROOT
ATOM      6  CA  LYS A   2      17.723  68.267  13.302  0.00  0.00    +0.000 C 
ENDROOT
BRANCH   6   7
ATOM      7  N   LYS A   2      18.225  67.322  14.484  0.00  0.00    +0.000 NA
ATOM      8  C   ASP A   1      19.489  67.853  14.918  0.00  0.00    +0.000 C 
ATOM      9  O   ASP A   1      19.386  68.984  15.486  0.00  0.00    +0.000 OA
BRANCH   8  10
ATOM     10  CA  ASP A   1      20.144  66.784  15.963  0.00  0.00    +0.000 C 
ATOM     11  N   ASP A   1      21.605  67.384  15.754  0.00  0.00    +0.000 NA
BRANCH  10  12
ATOM     12  CB  ASP A   1      20.380  65.661  14.760  0.00  0.00    +0.000 C 
BRANCH  12  13
ATOM     13  CG  ASP A   1      20.026  64.364  15.414  0.00  0.00    +0.000 C 
ATOM     14  OD1 ASP A   1      18.841  63.966  15.258  0.00  0.00    +0.000 OA
ATOM     15  OD2 ASP A   1      21.010  63.386  15.427  0.00  0.00    +0.000 OA
ENDBRANCH  12  13
ENDBRANCH  10  12
ENDBRANCH   8  10
ENDBRANCH   6   7
BRANCH   6  16
ATOM     16  C   LYS A   2      16.699  67.132  12.737  0.00  0.00    +0.000 C 
ATOM     17  O   LYS A   2      15.515  67.437  12.667  0.00  0.00    +0.000 OA
ATOM     18  OXT LYS A   2      17.284  65.922  12.457  0.00  0.00    +0.000 OA
ENDBRANCH   6  16
BRANCH   6   5
ATOM      5  CB  LYS A   2      18.968  67.792  12.303  0.00  0.00    +0.000 C 
BRANCH   5   4
ATOM      4  CG  LYS A   2      19.260  68.989  11.476  0.00  0.00    +0.000 C 
BRANCH   4   3
ATOM      3  CD  LYS A   2      18.212  70.039  11.398  0.00  0.00    +0.000 C 
BRANCH   3   2
ATOM      1  NZ  LYS A   2      17.302  69.788   9.795  0.00  0.00    +0.000 NA
ATOM      2  CE  LYS A   2      17.658  69.947   9.976  0.00  0.00    +0.000 C 
ENDBRANCH   3   2
ENDBRANCH   4   3
ENDBRANCH   5   4
ENDBRANCH   6   5
TORSDOF 9
ENDMDL
MODEL 9
REMARK VINA RESULT:      -4.4     27.972     29.937
REMARK  Name = 
REMARK  9 active torsions:
REMARK  status: ('A' for Active; 'I' for Inactive)
REMARK    1  A    between atoms: CE_2  and  CD_3
REMARK    2  A    between atoms: CD_3  and  CG_4
REMARK    3  A    between atoms: CG_4  and  CB_5
REMARK    4  A    between atoms: CB_5  and  CA_6
REMARK    5  A    between atoms: CA_6  and  N_7
REMARK    6  A    between atoms: CA_6  and  C_16
REMARK    7  A    between atoms: C_8  and  CA_10
REMARK    8  A    between atoms: CA_10  and  CB_12
REMARK    9  A    between atoms: CB_12  and  CG_13
REMARK                            x       y       z     vdW  Elec       q    Type
REMARK                         _______ _______ _______ _____ _____    ______ ____
ROOT
ATOM      6  CA  LYS A   2      24.239  56.870  -6.038  0.00  0.00    +0.000 C 
ENDROOT
BRANCH   6   7
ATOM      7  N   LYS A   2      25.447  57.534  -6.838  0.00  0.00    +0.000 NA
ATOM      8  C   ASP A   1      25.942  56.525  -7.735  0.00  0.00    +0.000 C 
ATOM      9  O   ASP A   1      25.120  56.232  -8.658  0.00  0.00    +0.000 OA
BRANCH   8  10
ATOM     10  CA  ASP A   1      27.322  57.087  -8.403  0.00  0.00    +0.000 C 
ATOM     11  N   ASP A   1      28.014  55.654  -8.323  0.00  0.00    +0.000 NA
BRANCH  10  12
ATOM     12  CB  ASP A   1      27.934  57.520  -6.919  0.00  0.00    +0.000 C 
BRANCH  12  13
ATOM     13  CG  ASP A   1      28.771  58.722  -7.219  0.00  0.00    +0.000 C 
ATOM     14  OD1 ASP A   1      30.016  58.537  -7.259  0.00  0.00    +0.000 OA
ATOM     15  OD2 ASP A   1      28.250  59.631  -8.128  0.00  0.00    +0.000 OA
ENDBRANCH  12  13
ENDBRANCH  10  12
ENDBRANCH   8  10
ENDBRANCH   6   7
BRANCH   6  16
ATOM     16  C   LYS A   2      23.457  58.294  -5.903  0.00  0.00    +0.000 C 
ATOM     17  O   LYS A   2      22.599  58.538  -6.744  0.00  0.00    +0.000 OA
ATOM     18  OXT LYS A   2      23.898  59.094  -4.879  0.00  0.00    +0.000 OA
ENDBRANCH   6  16
BRANCH   6   5
ATOM      5  CB  LYS A   2      25.023  57.042  -4.579  0.00  0.00    +0.000 C 
BRANCH   5   4
ATOM      4  CG  LYS A   2      24.575  55.878  -3.775  0.00  0.00    +0.000 C 
BRANCH   4   3
ATOM      3  CD  LYS A   2      23.199  55.920  -3.219  0.00  0.00    +0.000 C 
BRANCH   3   2
ATOM      1  NZ  LYS A   2      22.620  54.319  -3.970  0.00  0.00    +0.000 NA
ATOM      2  CE  LYS A   2      22.549  54.607  -3.660  0.00  0.00    +0.000 C 
ENDBRANCH   3   2
ENDBRANCH   4   3
ENDBRANCH   5   4
ENDBRANCH   6   5
TORSDOF 9
ENDMDL
MODEL 10
REMARK VINA RESULT:      -4.4     21.160     22.766
REMARK  Name = 
REMARK  9 active torsions:
REMARK  status: ('A' for Active; 'I' for Inactive)
REMARK    1  A    between atoms: CE_2  and  CD_3
REMARK    2  A    between atoms: CD_3  and  CG_4
REMARK    3  A    between atoms: CG_4  and  CB_5
REMARK    4  A    between atoms: CB_5  and  CA_6
REMARK    5  A    between atoms: CA_6  and  N_7
REMARK    6  A    between atoms: CA_6  and  C_16
REMARK    7  A    between atoms: C_8  and  CA_10
REMARK    8  A    between atoms: CA_10  and  CB_12
REMARK    9  A    between atoms: CB_12  and  CG_13
REMARK                            x       y       z     vdW  Elec       q    Type
REMARK                         _______ _______ _______ _____ _____    ______ ____
ROOT
ATOM      6  CA  LYS A   2      17.230  67.082  -9.729  0.00  0.00    +0.000 C 
ENDROOT
BRANCH   6   7
ATOM      7  N   LYS A   2      17.628  68.238  -8.706  0.00  0.00    +0.000 NA
ATOM      8  C   ASP A   1      16.664  68.187  -7.640  0.00  0.00    +0.000 C 
ATOM      9  O   ASP A   1      16.760  67.138  -6.931  0.00  0.00    +0.000 OA
BRANCH   8  10
ATOM     10  CA  ASP A   1      16.897  69.498  -6.696  0.00  0.00    +0.000 C 
ATOM     11  N   ASP A   1      15.375  69.502  -6.224  0.00  0.00    +0.000 NA
BRANCH  10  12
ATOM     12  CB  ASP A   1      16.562  70.536  -7.950  0.00  0.00    +0.000 C 
BRANCH  12  13
ATOM     13  CG  ASP A   1      17.382  71.746  -7.636  0.00  0.00    +0.000 C 
ATOM     14  OD1 ASP A   1      18.236  72.080  -8.499  0.00  0.00    +0.000 OA
ATOM     15  OD2 ASP A   1      16.736  72.779  -6.971  0.00  0.00    +0.000 OA
ENDBRANCH  12  13
ENDBRANCH  10  12
ENDBRANCH   8  10
ENDBRANCH   6   7
BRANCH   6  16
ATOM     16  C   LYS A   2      18.768  66.554  -9.838  0.00  0.00    +0.000 C 
ATOM     17  O   LYS A   2      18.964  65.549 -10.511  0.00  0.00    +0.000 OA
ATOM     18  OXT LYS A   2      19.674  67.276  -9.101  0.00  0.00    +0.000 OA
ENDBRANCH   6  16
BRANCH   6   5
ATOM      5  CB  LYS A   2      17.374  68.100 -11.039  0.00  0.00    +0.000 C 
BRANCH   5   4
ATOM      4  CG  LYS A   2      16.364  67.607 -12.007  0.00  0.00    +0.000 C 
BRANCH   4   3
ATOM      3  CD  LYS A   2      16.850  66.791 -13.148  0.00  0.00    +0.000 C 
BRANCH   3   2
ATOM      1  NZ  LYS A   2      16.441  65.015 -12.773  0.00  0.00    +0.000 NA
ATOM      2  CE  LYS A   2      16.283  65.390 -12.909  0.00  0.00    +0.000 C 
ENDBRANCH   3   2
ENDBRANCH   4   3
ENDBRANCH   5   4
ENDBRANCH   6   5
TORSDOF 9
ENDMDL
