MODEL 1
REMARK VINA RESULT:      -6.0      0.000      0.000
REMARK  Name = 
REMARK  7 active torsions:
REMARK  status: ('A' for Active; 'I' for Inactive)
REMARK    1  A    between atoms: CA_2  and  CB_3
REMARK    2  A    between atoms: CA_2  and  C_7
REMARK    3  A    between atoms: CB_3  and  CG_4
REMARK    4  A    between atoms: N_9  and  CA_10
REMARK    5  A    between atoms: CA_10  and  CB_11
REMARK    6  A    between atoms: CA_10  and  C_18
REMARK    7  A    between atoms: CB_11  and  CG_12
REMARK                            x       y       z     vdW  Elec       q    Type
REMARK                         _______ _______ _______ _____ _____    ______ ____
ROOT
ATOM     10  CA  PHE A   2      27.028  81.011 -27.687  0.00  0.00    +0.000 C 
ENDROOT
BRANCH  10   9
ATOM      7  C   ASP A   1      26.166  80.446 -25.332  0.00  0.00    +0.000 C 
ATOM      8  O   ASP A   1      25.378  81.422 -25.386  0.00  0.00    +0.000 OA
ATOM      9  N   PHE A   2      26.535  79.986 -26.594  0.00  0.00    +0.000 NA
BRANCH   7   2
ATOM      1  N   ASP A   1      27.159  82.115 -24.005  0.00  0.00    +0.000 NA
ATOM      2  CA  ASP A   1      27.284  80.546 -24.165  0.00  0.00    +0.000 C 
BRANCH   2   3
ATOM      3  CB  ASP A   1      26.227  80.270 -22.947  0.00  0.00    +0.000 C 
BRANCH   3   4
ATOM      4  CG  ASP A   1      26.782  79.333 -22.007  0.00  0.00    +0.000 C 
ATOM      5  OD1 ASP A   1      27.463  79.920 -21.107  0.00  0.00    +0.000 OA
ATOM      6  OD2 ASP A   1      26.408  78.055 -21.687  0.00  0.00    +0.000 OA
ENDBRANCH   3   4
ENDBRANCH   2   3
ENDBRANCH   7   2
ENDBRANCH  10   9
BRANCH  10  18
ATOM     18  C   PHE A   2      26.614  80.088 -28.940  0.00  0.00    +0.000 C 
ATOM     19  O   PHE A   2      27.662  79.418 -29.215  0.00  0.00    +0.000 OA
ATOM     20  OXT PHE A   2      25.404  79.532 -29.061  0.00  0.00    +0.000 OA
ENDBRANCH  10  18
BRANCH  10  11
ATOM     11  CB  PHE A   2      28.581  80.467 -27.613  0.00  0.00    +0.000 C 
BRANCH  11  12
ATOM     12  CG  PHE A   2      29.294  81.736 -27.290  0.00  0.00    +0.000 A 
ATOM     13  CD1 PHE A   2      30.091  81.845 -26.158  0.00  0.00    +0.000 A 
ATOM     14  CE1 PHE A   2      30.944  82.911 -26.022  0.00  0.00    +0.000 A 
ATOM     15  CZ  PHE A   2      30.893  83.934 -26.931  0.00  0.00    +0.000 A 
ATOM     16  CE2 PHE A   2      30.062  83.839 -28.034  0.00  0.00    +0.000 A 
ATOM     17  CD2 PHE A   2      29.329  82.692 -28.293  0.00  0.00    +0.000 A 
ENDBRANCH  11  12
ENDBRANCH  10  11
TORSDOF 7
ENDMDL
MODEL 2
REMARK VINA RESULT:      -5.7      2.346      3.260
REMARK  Name = 
REMARK  7 active torsions:
REMARK  status: ('A' for Active; 'I' for Inactive)
REMARK    1  A    between atoms: CA_2  and  CB_3
REMARK    2  A    between atoms: CA_2  and  C_7
REMARK    3  A    between atoms: CB_3  and  CG_4
REMARK    4  A    between atoms: N_9  and  CA_10
REMARK    5  A    between atoms: CA_10  and  CB_11
REMARK    6  A    between atoms: CA_10  and  C_18
REMARK    7  A    between atoms: CB_11  and  CG_12
REMARK                            x       y       z     vdW  Elec       q    Type
REMARK                         _______ _______ _______ _____ _____    ______ ____
ROOT
ATOM     10  CA  PHE A   2      27.460  80.816 -27.721  0.00  0.00    +0.000 C 
ENDROOT
BRANCH  10   9
ATOM      7  C   ASP A   1      26.739  80.475 -25.277  0.00  0.00    +0.000 C 
ATOM      8  O   ASP A   1      25.851  79.669 -25.650  0.00  0.00    +0.000 OA
ATOM      9  N   PHE A   2      27.782  80.585 -26.195  0.00  0.00    +0.000 NA
BRANCH   7   2
ATOM      1  N   ASP A   1      24.674  81.558 -24.973  0.00  0.00    +0.000 NA
ATOM      2  CA  ASP A   1      26.177  81.808 -24.549  0.00  0.00    +0.000 C 
BRANCH   2   3
ATOM      3  CB  ASP A   1      25.960  81.083 -23.098  0.00  0.00    +0.000 C 
BRANCH   3   4
ATOM      4  CG  ASP A   1      26.639  81.821 -22.066  0.00  0.00    +0.000 C 
ATOM      5  OD1 ASP A   1      25.963  82.833 -21.694  0.00  0.00    +0.000 OA
ATOM      6  OD2 ASP A   1      27.616  81.441 -21.186  0.00  0.00    +0.000 OA
ENDBRANCH   3   4
ENDBRANCH   2   3
ENDBRANCH   7   2
ENDBRANCH  10   9
BRANCH  10  18
ATOM     18  C   PHE A   2      28.786  80.076 -28.256  0.00  0.00    +0.000 C 
ATOM     19  O   PHE A   2      28.832  78.977 -27.612  0.00  0.00    +0.000 OA
ATOM     20  OXT PHE A   2      29.180  80.128 -29.533  0.00  0.00    +0.000 OA
ENDBRANCH  10  18
BRANCH  10  11
ATOM     11  CB  PHE A   2      28.124  82.322 -27.717  0.00  0.00    +0.000 C 
BRANCH  11  12
ATOM     12  CG  PHE A   2      27.217  83.017 -28.676  0.00  0.00    +0.000 A 
ATOM     13  CD1 PHE A   2      25.912  83.339 -28.327  0.00  0.00    +0.000 A 
ATOM     14  CE1 PHE A   2      25.191  84.208 -29.108  0.00  0.00    +0.000 A 
ATOM     15  CZ  PHE A   2      25.711  84.630 -30.302  0.00  0.00    +0.000 A 
ATOM     16  CE2 PHE A   2      26.997  84.267 -30.664  0.00  0.00    +0.000 A 
ATOM     17  CD2 PHE A   2      27.815  83.546 -29.810  0.00  0.00    +0.000 A 
ENDBRANCH  11  12
ENDBRANCH  10  11
TORSDOF 7
ENDMDL
MODEL 3
REMARK VINA RESULT:      -5.5     40.307     42.464
REMARK  Name = 
REMARK  7 active torsions:
REMARK  status: ('A' for Active; 'I' for Inactive)
REMARK    1  A    between atoms: CA_2  and  CB_3
REMARK    2  A    between atoms: CA_2  and  C_7
REMARK    3  A    between atoms: CB_3  and  CG_4
REMARK    4  A    between atoms: N_9  and  CA_10
REMARK    5  A    between atoms: CA_10  and  CB_11
REMARK    6  A    between atoms: CA_10  and  C_18
REMARK    7  A    between atoms: CB_11  and  CG_12
REMARK                            x       y       z     vdW  Elec       q    Type
REMARK                         _______ _______ _______ _____ _____    ______ ____
ROOT
ATOM     10  CA  PHE A   2      19.581  66.254  13.996  0.00  0.00    +0.000 C 
ENDROOT
BRANCH  10   9
ATOM      7  C   ASP A   1      18.426  65.587  11.798  0.00  0.00    +0.000 C 
ATOM      8  O   ASP A   1      19.435  64.914  11.472  0.00  0.00    +0.000 OA
ATOM      9  N   PHE A   2      18.325  65.765  13.176  0.00  0.00    +0.000 NA
BRANCH   7   2
ATOM      1  N   ASP A   1      18.797  66.174   9.551  0.00  0.00    +0.000 NA
ATOM      2  CA  ASP A   1      18.094  66.826  10.810  0.00  0.00    +0.000 C 
BRANCH   2   3
ATOM      3  CB  ASP A   1      16.626  66.254  10.372  0.00  0.00    +0.000 C 
BRANCH   3   4
ATOM      4  CG  ASP A   1      15.719  67.344  10.124  0.00  0.00    +0.000 C 
ATOM      5  OD1 ASP A   1      16.330  68.458  10.077  0.00  0.00    +0.000 OA
ATOM      6  OD2 ASP A   1      14.469  67.362   9.567  0.00  0.00    +0.000 OA
ENDBRANCH   3   4
ENDBRANCH   2   3
ENDBRANCH   7   2
ENDBRANCH  10   9
BRANCH  10  18
ATOM     18  C   PHE A   2      19.485  65.089  15.104  0.00  0.00    +0.000 C 
ATOM     19  O   PHE A   2      19.416  65.701  16.220  0.00  0.00    +0.000 OA
ATOM     20  OXT PHE A   2      18.797  63.959  14.910  0.00  0.00    +0.000 OA
ENDBRANCH  10  18
BRANCH  10  11
ATOM     11  CB  PHE A   2      18.697  67.345  14.856  0.00  0.00    +0.000 C 
BRANCH  11  12
ATOM     12  CG  PHE A   2      19.419  68.604  14.512  0.00  0.00    +0.000 A 
ATOM     13  CD1 PHE A   2      19.285  69.191  13.261  0.00  0.00    +0.000 A 
ATOM     14  CE1 PHE A   2      19.730  70.473  13.056  0.00  0.00    +0.000 A 
ATOM     15  CZ  PHE A   2      20.437  71.106  14.044  0.00  0.00    +0.000 A 
ATOM     16  CE2 PHE A   2      20.605  70.495  15.275  0.00  0.00    +0.000 A 
ATOM     17  CD2 PHE A   2      20.007  69.281  15.570  0.00  0.00    +0.000 A 
ENDBRANCH  11  12
ENDBRANCH  10  11
TORSDOF 7
ENDMDL
MODEL 4
REMARK VINA RESULT:      -5.4     29.446     31.740
REMARK  Name = 
REMARK  7 active torsions:
REMARK  status: ('A' for Active; 'I' for Inactive)
REMARK    1  A    between atoms: CA_2  and  CB_3
REMARK    2  A    between atoms: CA_2  and  C_7
REMARK    3  A    between atoms: CB_3  and  CG_4
REMARK    4  A    between atoms: N_9  and  CA_10
REMARK    5  A    between atoms: CA_10  and  CB_11
REMARK    6  A    between atoms: CA_10  and  C_18
REMARK    7  A    between atoms: CB_11  and  CG_12
REMARK                            x       y       z     vdW  Elec       q    Type
REMARK                         _______ _______ _______ _____ _____    ______ ____
ROOT
ATOM     10  CA  PHE A   2      24.225  55.437  -5.058  0.00  0.00    +0.000 C 
ENDROOT
BRANCH  10   9
ATOM      7  C   ASP A   1      25.878  54.759  -6.907  0.00  0.00    +0.000 C 
ATOM      8  O   ASP A   1      26.062  53.655  -6.338  0.00  0.00    +0.000 OA
ATOM      9  N   PHE A   2      24.654  55.335  -6.572  0.00  0.00    +0.000 NA
BRANCH   7   2
ATOM      1  N   ASP A   1      28.054  54.620  -7.788  0.00  0.00    +0.000 NA
ATOM      2  CA  ASP A   1      27.195  55.695  -7.007  0.00  0.00    +0.000 C 
BRANCH   2   3
ATOM      3  CB  ASP A   1      26.730  56.429  -8.392  0.00  0.00    +0.000 C 
BRANCH   3   4
ATOM      4  CG  ASP A   1      27.773  57.297  -8.872  0.00  0.00    +0.000 C 
ATOM      5  OD1 ASP A   1      28.090  57.027 -10.074  0.00  0.00    +0.000 OA
ATOM      6  OD2 ASP A   1      28.177  58.534  -8.446  0.00  0.00    +0.000 OA
ENDBRANCH   3   4
ENDBRANCH   2   3
ENDBRANCH   7   2
ENDBRANCH  10   9
BRANCH  10  18
ATOM     18  C   PHE A   2      22.954  54.459  -5.208  0.00  0.00    +0.000 C 
ATOM     19  O   PHE A   2      22.485  54.346  -4.028  0.00  0.00    +0.000 OA
ATOM     20  OXT PHE A   2      22.132  54.495  -6.261  0.00  0.00    +0.000 OA
ENDBRANCH  10  18
BRANCH  10  11
ATOM     11  CB  PHE A   2      23.372  56.823  -5.307  0.00  0.00    +0.000 C 
BRANCH  11  12
ATOM     12  CG  PHE A   2      24.469  57.830  -5.233  0.00  0.00    +0.000 A 
ATOM     13  CD1 PHE A   2      25.490  57.714  -4.299  0.00  0.00    +0.000 A 
ATOM     14  CE1 PHE A   2      26.620  58.483  -4.422  0.00  0.00    +0.000 A 
ATOM     15  CZ  PHE A   2      26.666  59.464  -5.377  0.00  0.00    +0.000 A 
ATOM     16  CE2 PHE A   2      25.623  59.603  -6.276  0.00  0.00    +0.000 A 
ATOM     17  CD2 PHE A   2      24.556  58.720  -6.292  0.00  0.00    +0.000 A 
ENDBRANCH  11  12
ENDBRANCH  10  11
TORSDOF 7
ENDMDL
MODEL 5
REMARK VINA RESULT:      -5.4      2.928      5.695
REMARK  Name = 
REMARK  7 active torsions:
REMARK  status: ('A' for Active; 'I' for Inactive)
REMARK    1  A    between atoms: CA_2  and  CB_3
REMARK    2  A    between atoms: CA_2  and  C_7
REMARK    3  A    between atoms: CB_3  and  CG_4
REMARK    4  A    between atoms: N_9  and  CA_10
REMARK    5  A    between atoms: CA_10  and  CB_11
REMARK    6  A    between atoms: CA_10  and  C_18
REMARK    7  A    between atoms: CB_11  and  CG_12
REMARK                            x       y       z     vdW  Elec       q    Type
REMARK                         _______ _______ _______ _____ _____    ______ ____
ROOT
ATOM     10  CA  PHE A   2      27.940  82.910 -26.593  0.00  0.00    +0.000 C 
ENDROOT
BRANCH  10   9
ATOM      7  C   ASP A   1      26.987  81.782 -28.698  0.00  0.00    +0.000 C 
ATOM      8  O   ASP A   1      25.974  82.520 -28.636  0.00  0.00    +0.000 OA
ATOM      9  N   PHE A   2      28.092  82.334 -28.054  0.00  0.00    +0.000 NA
BRANCH   7   2
ATOM      1  N   ASP A   1      25.389  80.227 -29.447  0.00  0.00    +0.000 NA
ATOM      2  CA  ASP A   1      26.680  80.201 -28.533  0.00  0.00    +0.000 C 
BRANCH   2   3
ATOM      3  CB  ASP A   1      27.638  79.750 -29.780  0.00  0.00    +0.000 C 
BRANCH   3   4
ATOM      4  CG  ASP A   1      28.746  78.967 -29.301  0.00  0.00    +0.000 C 
ATOM      5  OD1 ASP A   1      29.723  78.992 -30.115  0.00  0.00    +0.000 OA
ATOM      6  OD2 ASP A   1      29.076  78.562 -28.035  0.00  0.00    +0.000 OA
ENDBRANCH   3   4
ENDBRANCH   2   3
ENDBRANCH   7   2
ENDBRANCH  10   9
BRANCH  10  18
ATOM     18  C   PHE A   2      29.482  83.354 -26.457  0.00  0.00    +0.000 C 
ATOM     19  O   PHE A   2      29.860  83.596 -27.650  0.00  0.00    +0.000 OA
ATOM     20  OXT PHE A   2      29.936  84.094 -25.441  0.00  0.00    +0.000 OA
ENDBRANCH  10  18
BRANCH  10  11
ATOM     11  CB  PHE A   2      28.152  81.431 -25.901  0.00  0.00    +0.000 C 
BRANCH  11  12
ATOM     12  CG  PHE A   2      27.219  81.541 -24.743  0.00  0.00    +0.000 A 
ATOM     13  CD1 PHE A   2      26.253  82.537 -24.690  0.00  0.00    +0.000 A 
ATOM     14  CE1 PHE A   2      25.241  82.460 -23.766  0.00  0.00    +0.000 A 
ATOM     15  CZ  PHE A   2      25.277  81.482 -22.808  0.00  0.00    +0.000 A 
ATOM     16  CE2 PHE A   2      26.270  80.518 -22.841  0.00  0.00    +0.000 A 
ATOM     17  CD2 PHE A   2      27.195  80.464 -23.871  0.00  0.00    +0.000 A 
ENDBRANCH  11  12
ENDBRANCH  10  11
TORSDOF 7
ENDMDL
MODEL 6
REMARK VINA RESULT:      -5.3      2.818      5.913
REMARK  Name = 
REMARK  7 active torsions:
REMARK  status: ('A' for Active; 'I' for Inactive)
REMARK    1  A    between atoms: CA_2  and  CB_3
REMARK    2  A    between atoms: CA_2  and  C_7
REMARK    3  A    between atoms: CB_3  and  CG_4
REMARK    4  A    between atoms: N_9  and  CA_10
REMARK    5  A    between atoms: CA_10  and  CB_11
REMARK    6  A    between atoms: CA_10  and  C_18
REMARK    7  A    between atoms: CB_11  and  CG_12
REMARK                            x       y       z     vdW  Elec       q    Type
REMARK                         _______ _______ _______ _____ _____    ______ ____
ROOT
ATOM     10  CA  PHE A   2      28.058  82.125 -26.536  0.00  0.00    +0.000 C 
ENDROOT
BRANCH  10   9
ATOM      7  C   ASP A   1      27.740  81.999 -29.085  0.00  0.00    +0.000 C 
ATOM      8  O   ASP A   1      28.451  83.025 -29.224  0.00  0.00    +0.000 OA
ATOM      9  N   PHE A   2      28.003  81.324 -27.894  0.00  0.00    +0.000 NA
BRANCH   7   2
ATOM      1  N   ASP A   1      26.522  83.381 -30.547  0.00  0.00    +0.000 NA
ATOM      2  CA  ASP A   1      26.208  82.168 -29.580  0.00  0.00    +0.000 C 
BRANCH   2   3
ATOM      3  CB  ASP A   1      26.342  81.078 -30.793  0.00  0.00    +0.000 C 
BRANCH   3   4
ATOM      4  CG  ASP A   1      25.928  79.776 -30.341  0.00  0.00    +0.000 C 
ATOM      5  OD1 ASP A   1      26.561  78.850 -30.941  0.00  0.00    +0.000 OA
ATOM      6  OD2 ASP A   1      25.317  79.382 -29.181  0.00  0.00    +0.000 OA
ENDBRANCH   3   4
ENDBRANCH   2   3
ENDBRANCH   7   2
ENDBRANCH  10   9
BRANCH  10  18
ATOM     18  C   PHE A   2      29.503  81.562 -26.102  0.00  0.00    +0.000 C 
ATOM     19  O   PHE A   2      29.474  80.323 -26.396  0.00  0.00    +0.000 OA
ATOM     20  OXT PHE A   2      30.629  82.267 -26.250  0.00  0.00    +0.000 OA
ENDBRANCH  10  18
BRANCH  10  11
ATOM     11  CB  PHE A   2      27.203  80.973 -25.728  0.00  0.00    +0.000 C 
BRANCH  11  12
ATOM     12  CG  PHE A   2      26.939  81.686 -24.445  0.00  0.00    +0.000 A 
ATOM     13  CD1 PHE A   2      26.515  83.008 -24.432  0.00  0.00    +0.000 A 
ATOM     14  CE1 PHE A   2      26.020  83.555 -23.275  0.00  0.00    +0.000 A 
ATOM     15  CZ  PHE A   2      26.089  82.840 -22.108  0.00  0.00    +0.000 A 
ATOM     16  CE2 PHE A   2      26.556  81.537 -22.123  0.00  0.00    +0.000 A 
ATOM     17  CD2 PHE A   2      26.886  80.897 -23.307  0.00  0.00    +0.000 A 
ENDBRANCH  11  12
ENDBRANCH  10  11
TORSDOF 7
ENDMDL
MODEL 7
REMARK VINA RESULT:      -5.3     30.358     32.805
REMARK  Name = 
REMARK  7 active torsions:
REMARK  status: ('A' for Active; 'I' for Inactive)
REMARK    1  A    between atoms: CA_2  and  CB_3
REMARK    2  A    between atoms: CA_2  and  C_7
REMARK    3  A    between atoms: CB_3  and  CG_4
REMARK    4  A    between atoms: N_9  and  CA_10
REMARK    5  A    between atoms: CA_10  and  CB_11
REMARK    6  A    between atoms: CA_10  and  C_18
REMARK    7  A    between atoms: CB_11  and  CG_12
REMARK                            x       y       z     vdW  Elec       q    Type
REMARK                         _______ _______ _______ _____ _____    ______ ____
ROOT
ATOM     10  CA  PHE A   2      25.657  56.393  -6.298  0.00  0.00    +0.000 C 
ENDROOT
BRANCH  10   9
ATOM      7  C   ASP A   1      23.893  58.106  -5.546  0.00  0.00    +0.000 C 
ATOM      8  O   ASP A   1      24.770  59.004  -5.532  0.00  0.00    +0.000 OA
ATOM      9  N   PHE A   2      24.225  57.048  -6.390  0.00  0.00    +0.000 NA
BRANCH   7   2
ATOM      1  N   ASP A   1      22.089  58.886  -4.255  0.00  0.00    +0.000 NA
ATOM      2  CA  ASP A   1      23.224  57.794  -4.106  0.00  0.00    +0.000 C 
BRANCH   2   3
ATOM      3  CB  ASP A   1      22.250  56.606  -4.669  0.00  0.00    +0.000 C 
BRANCH   3   4
ATOM      4  CG  ASP A   1      22.218  55.506  -3.741  0.00  0.00    +0.000 C 
ATOM      5  OD1 ASP A   1      22.361  54.390  -4.335  0.00  0.00    +0.000 OA
ATOM      6  OD2 ASP A   1      22.455  55.462  -2.394  0.00  0.00    +0.000 OA
ENDBRANCH   3   4
ENDBRANCH   2   3
ENDBRANCH   7   2
ENDBRANCH  10   9
BRANCH  10  18
ATOM     18  C   PHE A   2      26.027  56.651  -7.844  0.00  0.00    +0.000 C 
ATOM     19  O   PHE A   2      25.001  56.266  -8.495  0.00  0.00    +0.000 OA
ATOM     20  OXT PHE A   2      26.729  57.712  -8.254  0.00  0.00    +0.000 OA
ENDBRANCH  10  18
BRANCH  10  11
ATOM     11  CB  PHE A   2      25.068  54.875  -6.540  0.00  0.00    +0.000 C 
BRANCH  11  12
ATOM     12  CG  PHE A   2      26.066  54.075  -5.774  0.00  0.00    +0.000 A 
ATOM     13  CD1 PHE A   2      27.096  53.403  -6.418  0.00  0.00    +0.000 A 
ATOM     14  CE1 PHE A   2      28.149  52.906  -5.691  0.00  0.00    +0.000 A 
ATOM     15  CZ  PHE A   2      28.099  52.944  -4.322  0.00  0.00    +0.000 A 
ATOM     16  CE2 PHE A   2      27.044  53.576  -3.686  0.00  0.00    +0.000 A 
ATOM     17  CD2 PHE A   2      26.065  54.249  -4.399  0.00  0.00    +0.000 A 
ENDBRANCH  11  12
ENDBRANCH  10  11
TORSDOF 7
ENDMDL
MODEL 8
REMARK VINA RESULT:      -5.2     28.770     32.401
REMARK  Name = 
REMARK  7 active torsions:
REMARK  status: ('A' for Active; 'I' for Inactive)
REMARK    1  A    between atoms: CA_2  and  CB_3
REMARK    2  A    between atoms: CA_2  and  C_7
REMARK    3  A    between atoms: CB_3  and  CG_4
REMARK    4  A    between atoms: N_9  and  CA_10
REMARK    5  A    between atoms: CA_10  and  CB_11
REMARK    6  A    between atoms: CA_10  and  C_18
REMARK    7  A    between atoms: CB_11  and  CG_12
REMARK                            x       y       z     vdW  Elec       q    Type
REMARK                         _______ _______ _______ _____ _____    ______ ____
ROOT
ATOM     10  CA  PHE A   2      24.600  54.603  -6.173  0.00  0.00    +0.000 C 
ENDROOT
BRANCH  10   9
ATOM      7  C   ASP A   1      25.516  56.669  -7.400  0.00  0.00    +0.000 C 
ATOM      8  O   ASP A   1      25.167  56.172  -8.498  0.00  0.00    +0.000 OA
ATOM      9  N   PHE A   2      24.785  56.162  -6.327  0.00  0.00    +0.000 NA
BRANCH   7   2
ATOM      1  N   ASP A   1      27.465  56.312  -8.666  0.00  0.00    +0.000 NA
ATOM      2  CA  ASP A   1      27.111  56.894  -7.238  0.00  0.00    +0.000 C 
BRANCH   2   3
ATOM      3  CB  ASP A   1      27.084  58.431  -7.796  0.00  0.00    +0.000 C 
BRANCH   3   4
ATOM      4  CG  ASP A   1      28.298  59.115  -7.436  0.00  0.00    +0.000 C 
ATOM      5  OD1 ASP A   1      28.925  59.527  -8.463  0.00  0.00    +0.000 OA
ATOM      6  OD2 ASP A   1      28.675  59.717  -6.265  0.00  0.00    +0.000 OA
ENDBRANCH   3   4
ENDBRANCH   2   3
ENDBRANCH   7   2
ENDBRANCH  10   9
BRANCH  10  18
ATOM     18  C   PHE A   2      23.260  54.709  -5.285  0.00  0.00    +0.000 C 
ATOM     19  O   PHE A   2      22.319  54.353  -6.067  0.00  0.00    +0.000 OA
ATOM     20  OXT PHE A   2      23.223  54.383  -3.990  0.00  0.00    +0.000 OA
ENDBRANCH  10  18
BRANCH  10  11
ATOM     11  CB  PHE A   2      25.623  54.525  -4.886  0.00  0.00    +0.000 C 
BRANCH  11  12
ATOM     12  CG  PHE A   2      26.768  53.791  -5.497  0.00  0.00    +0.000 A 
ATOM     13  CD1 PHE A   2      26.658  53.202  -6.749  0.00  0.00    +0.000 A 
ATOM     14  CE1 PHE A   2      27.785  52.773  -7.405  0.00  0.00    +0.000 A 
ATOM     15  CZ  PHE A   2      28.990  52.793  -6.754  0.00  0.00    +0.000 A 
ATOM     16  CE2 PHE A   2      29.083  53.340  -5.486  0.00  0.00    +0.000 A 
ATOM     17  CD2 PHE A   2      27.997  53.949  -4.877  0.00  0.00    +0.000 A 
ENDBRANCH  11  12
ENDBRANCH  10  11
TORSDOF 7
ENDMDL
MODEL 9
REMARK VINA RESULT:      -5.1      3.107      5.864
REMARK  Name = 
REMARK  7 active torsions:
REMARK  status: ('A' for Active; 'I' for Inactive)
REMARK    1  A    between atoms: CA_2  and  CB_3
REMARK    2  A    between atoms: CA_2  and  C_7
REMARK    3  A    between atoms: CB_3  and  CG_4
REMARK    4  A    between atoms: N_9  and  CA_10
REMARK    5  A    between atoms: CA_10  and  CB_11
REMARK    6  A    between atoms: CA_10  and  C_18
REMARK    7  A    between atoms: CB_11  and  CG_12
REMARK                            x       y       z     vdW  Elec       q    Type
REMARK                         _______ _______ _______ _____ _____    ______ ____
ROOT
ATOM     10  CA  PHE A   2      27.771  81.267 -26.807  0.00  0.00    +0.000 C 
ENDROOT
BRANCH  10   9
ATOM      7  C   ASP A   1      26.431  81.693 -28.960  0.00  0.00    +0.000 C 
ATOM      8  O   ASP A   1      27.376  82.384 -29.412  0.00  0.00    +0.000 OA
ATOM      9  N   PHE A   2      26.849  80.782 -27.992  0.00  0.00    +0.000 NA
BRANCH   7   2
ATOM      1  N   ASP A   1      25.748  83.917 -28.615  0.00  0.00    +0.000 NA
ATOM      2  CA  ASP A   1      25.047  82.504 -28.741  0.00  0.00    +0.000 C 
BRANCH   2   3
ATOM      3  CB  ASP A   1      24.763  82.712 -30.339  0.00  0.00    +0.000 C 
BRANCH   3   4
ATOM      4  CG  ASP A   1      23.659  81.890 -30.760  0.00  0.00    +0.000 C 
ATOM      5  OD1 ASP A   1      22.808  81.737 -29.828  0.00  0.00    +0.000 OA
ATOM      6  OD2 ASP A   1      23.185  81.597 -32.011  0.00  0.00    +0.000 OA
ENDBRANCH   3   4
ENDBRANCH   2   3
ENDBRANCH   7   2
ENDBRANCH  10   9
BRANCH  10  18
ATOM     18  C   PHE A   2      28.909  80.154 -27.052  0.00  0.00    +0.000 C 
ATOM     19  O   PHE A   2      29.676  80.241 -26.038  0.00  0.00    +0.000 OA
ATOM     20  OXT PHE A   2      28.653  78.965 -27.606  0.00  0.00    +0.000 OA
ENDBRANCH  10  18
BRANCH  10  11
ATOM     11  CB  PHE A   2      26.941  80.383 -25.693  0.00  0.00    +0.000 C 
BRANCH  11  12
ATOM     12  CG  PHE A   2      26.479  81.469 -24.780  0.00  0.00    +0.000 A 
ATOM     13  CD1 PHE A   2      25.853  81.178 -23.576  0.00  0.00    +0.000 A 
ATOM     14  CE1 PHE A   2      25.684  82.164 -22.637  0.00  0.00    +0.000 A 
ATOM     15  CZ  PHE A   2      25.998  83.458 -22.957  0.00  0.00    +0.000 A 
ATOM     16  CE2 PHE A   2      26.581  83.747 -24.179  0.00  0.00    +0.000 A 
ATOM     17  CD2 PHE A   2      26.933  82.746 -25.069  0.00  0.00    +0.000 A 
ENDBRANCH  11  12
ENDBRANCH  10  11
TORSDOF 7
ENDMDL
MODEL 10
REMARK VINA RESULT:      -5.1     29.142     31.557
REMARK  Name = 
REMARK  7 active torsions:
REMARK  status: ('A' for Active; 'I' for Inactive)
REMARK    1  A    between atoms: CA_2  and  CB_3
REMARK    2  A    between atoms: CA_2  and  C_7
REMARK    3  A    between atoms: CB_3  and  CG_4
REMARK    4  A    between atoms: N_9  and  CA_10
REMARK    5  A    between atoms: CA_10  and  CB_11
REMARK    6  A    between atoms: CA_10  and  C_18
REMARK    7  A    between atoms: CB_11  and  CG_12
REMARK                            x       y       z     vdW  Elec       q    Type
REMARK                         _______ _______ _______ _____ _____    ______ ____
ROOT
ATOM     10  CA  PHE A   2      25.928  58.739  -5.665  0.00  0.00    +0.000 C 
ENDROOT
BRANCH  10   9
ATOM      7  C   ASP A   1      27.375  58.152  -7.708  0.00  0.00    +0.000 C 
ATOM      8  O   ASP A   1      27.230  59.319  -8.146  0.00  0.00    +0.000 OA
ATOM      9  N   PHE A   2      27.194  58.072  -6.329  0.00  0.00    +0.000 NA
BRANCH   7   2
ATOM      1  N   ASP A   1      28.107  56.749  -9.447  0.00  0.00    +0.000 NA
ATOM      2  CA  ASP A   1      26.759  56.994  -8.658  0.00  0.00    +0.000 C 
BRANCH   2   3
ATOM      3  CB  ASP A   1      27.074  55.781  -7.606  0.00  0.00    +0.000 C 
BRANCH   3   4
ATOM      4  CG  ASP A   1      25.885  55.006  -7.368  0.00  0.00    +0.000 C 
ATOM      5  OD1 ASP A   1      24.872  55.514  -7.947  0.00  0.00    +0.000 OA
ATOM      6  OD2 ASP A   1      25.726  53.698  -6.998  0.00  0.00    +0.000 OA
ENDBRANCH   3   4
ENDBRANCH   2   3
ENDBRANCH   7   2
ENDBRANCH  10   9
BRANCH  10  18
ATOM     18  C   PHE A   2      26.753  59.923  -4.951  0.00  0.00    +0.000 C 
ATOM     19  O   PHE A   2      25.942  60.422  -4.102  0.00  0.00    +0.000 OA
ATOM     20  OXT PHE A   2      28.055  59.830  -4.667  0.00  0.00    +0.000 OA
ENDBRANCH  10  18
BRANCH  10  11
ATOM     11  CB  PHE A   2      25.972  57.726  -4.368  0.00  0.00    +0.000 C 
BRANCH  11  12
ATOM     12  CG  PHE A   2      24.723  56.945  -4.595  0.00  0.00    +0.000 A 
ATOM     13  CD1 PHE A   2      24.586  55.651  -4.110  0.00  0.00    +0.000 A 
ATOM     14  CE1 PHE A   2      23.350  55.055  -4.089  0.00  0.00    +0.000 A 
ATOM     15  CZ  PHE A   2      22.290  55.685  -4.686  0.00  0.00    +0.000 A 
ATOM     16  CE2 PHE A   2      22.446  56.957  -5.208  0.00  0.00    +0.000 A 
ATOM     17  CD2 PHE A   2      23.635  57.656  -5.075  0.00  0.00    +0.000 A 
ENDBRANCH  11  12
ENDBRANCH  10  11
TORSDOF 7
ENDMDL
