MODEL 1
REMARK VINA RESULT:      -5.0      0.000      0.000
REMARK  Name = 
REMARK  7 active torsions:
REMARK  status: ('A' for Active; 'I' for Inactive)
REMARK    1  A    between atoms: CA_2  and  CB_3
REMARK    2  A    between atoms: CA_2  and  C_7
REMARK    3  A    between atoms: CB_3  and  CG_4
REMARK    4  A    between atoms: N_9  and  CA_10
REMARK    5  A    between atoms: CA_10  and  CB_11
REMARK    6  A    between atoms: CA_10  and  C_18
REMARK    7  A    between atoms: CB_11  and  CG_12
REMARK                            x       y       z     vdW  Elec       q    Type
REMARK                         _______ _______ _______ _____ _____    ______ ____
ROOT
ATOM     10  CA  PHE A   2       6.851  46.755 -13.495  0.00  0.00    +0.000 C 
ENDROOT
BRANCH  10   9
ATOM      7  C   ASP A   1       4.753  45.471 -13.619  0.00  0.00    +0.000 C 
ATOM      8  O   ASP A   1       4.607  45.896 -14.766  0.00  0.00    +0.000 OA
ATOM      9  N   PHE A   2       5.690  46.004 -12.666  0.00  0.00    +0.000 NA
BRANCH   7   2
ATOM      1  N   ASP A   1       3.185  43.919 -14.434  0.00  0.00    +0.000 NA
ATOM      2  CA  ASP A   1       4.419  43.879 -13.407  0.00  0.00    +0.000 C 
BRANCH   2   3
ATOM      3  CB  ASP A   1       5.466  43.390 -14.623  0.00  0.00    +0.000 C 
BRANCH   3   4
ATOM      4  CG  ASP A   1       6.245  42.304 -14.015  0.00  0.00    +0.000 C 
ATOM      5  OD1 ASP A   1       6.622  41.363 -14.773  0.00  0.00    +0.000 OA
ATOM      6  OD2 ASP A   1       6.809  42.390 -12.766  0.00  0.00    +0.000 OA
ENDBRANCH   3   4
ENDBRANCH   2   3
ENDBRANCH   7   2
ENDBRANCH  10   9
BRANCH  10  18
ATOM     18  C   PHE A   2       7.179  47.867 -12.329  0.00  0.00    +0.000 C 
ATOM     19  O   PHE A   2       6.679  47.700 -11.227  0.00  0.00    +0.000 OA
ATOM     20  OXT PHE A   2       6.908  49.116 -12.907  0.00  0.00    +0.000 OA
ENDBRANCH  10  18
BRANCH  10  11
ATOM     11  CB  PHE A   2       8.018  45.671 -12.983  0.00  0.00    +0.000 C 
BRANCH  11  12
ATOM     12  CG  PHE A   2       8.838  45.325 -14.142  0.00  0.00    +0.000 A 
ATOM     13  CD1 PHE A   2       9.449  44.075 -14.186  0.00  0.00    +0.000 A 
ATOM     14  CE1 PHE A   2       9.509  43.326 -15.355  0.00  0.00    +0.000 A 
ATOM     15  CZ  PHE A   2       9.026  43.843 -16.538  0.00  0.00    +0.000 A 
ATOM     16  CE2 PHE A   2       8.726  45.193 -16.568  0.00  0.00    +0.000 A 
ATOM     17  CD2 PHE A   2       8.280  45.711 -15.361  0.00  0.00    +0.000 A 
ENDBRANCH  11  12
ENDBRANCH  10  11
TORSDOF 7
ENDMDL
MODEL 2
REMARK VINA RESULT:      -5.0     35.258     36.743
REMARK  Name = 
REMARK  7 active torsions:
REMARK  status: ('A' for Active; 'I' for Inactive)
REMARK    1  A    between atoms: CA_2  and  CB_3
REMARK    2  A    between atoms: CA_2  and  C_7
REMARK    3  A    between atoms: CB_3  and  CG_4
REMARK    4  A    between atoms: N_9  and  CA_10
REMARK    5  A    between atoms: CA_10  and  CB_11
REMARK    6  A    between atoms: CA_10  and  C_18
REMARK    7  A    between atoms: CB_11  and  CG_12
REMARK                            x       y       z     vdW  Elec       q    Type
REMARK                         _______ _______ _______ _____ _____    ______ ____
ROOT
ATOM     10  CA  PHE A   2      26.204  45.994  16.851  0.00  0.00    +0.000 C 
ENDROOT
BRANCH  10   9
ATOM      7  C   ASP A   1      27.985  44.298  16.740  0.00  0.00    +0.000 C 
ATOM      8  O   ASP A   1      28.233  44.538  17.923  0.00  0.00    +0.000 OA
ATOM      9  N   PHE A   2      27.170  45.127  15.895  0.00  0.00    +0.000 NA
BRANCH   7   2
ATOM      1  N   ASP A   1      29.328  42.408  17.139  0.00  0.00    +0.000 NA
ATOM      2  CA  ASP A   1      27.974  42.710  16.328  0.00  0.00    +0.000 C 
BRANCH   2   3
ATOM      3  CB  ASP A   1      27.039  42.266  17.648  0.00  0.00    +0.000 C 
BRANCH   3   4
ATOM      4  CG  ASP A   1      26.042  41.343  17.092  0.00  0.00    +0.000 C 
ATOM      5  OD1 ASP A   1      25.459  41.691  16.024  0.00  0.00    +0.000 OA
ATOM      6  OD2 ASP A   1      25.912  40.038  17.501  0.00  0.00    +0.000 OA
ENDBRANCH   3   4
ENDBRANCH   2   3
ENDBRANCH   7   2
ENDBRANCH  10   9
BRANCH  10  18
ATOM     18  C   PHE A   2      26.030  47.247  15.801  0.00  0.00    +0.000 C 
ATOM     19  O   PHE A   2      25.252  48.139  16.102  0.00  0.00    +0.000 OA
ATOM     20  OXT PHE A   2      25.787  46.664  14.548  0.00  0.00    +0.000 OA
ENDBRANCH  10  18
BRANCH  10  11
ATOM     11  CB  PHE A   2      24.837  45.184  16.326  0.00  0.00    +0.000 C 
BRANCH  11  12
ATOM     12  CG  PHE A   2      24.049  44.836  17.506  0.00  0.00    +0.000 A 
ATOM     13  CD1 PHE A   2      23.094  43.828  17.405  0.00  0.00    +0.000 A 
ATOM     14  CE1 PHE A   2      22.908  42.888  18.412  0.00  0.00    +0.000 A 
ATOM     15  CZ  PHE A   2      23.621  42.978  19.589  0.00  0.00    +0.000 A 
ATOM     16  CE2 PHE A   2      24.316  44.150  19.824  0.00  0.00    +0.000 A 
ATOM     17  CD2 PHE A   2      24.796  44.774  18.682  0.00  0.00    +0.000 A 
ENDBRANCH  11  12
ENDBRANCH  10  11
TORSDOF 7
ENDMDL
MODEL 3
REMARK VINA RESULT:      -4.7     33.497     36.584
REMARK  Name = 
REMARK  7 active torsions:
REMARK  status: ('A' for Active; 'I' for Inactive)
REMARK    1  A    between atoms: CA_2  and  CB_3
REMARK    2  A    between atoms: CA_2  and  C_7
REMARK    3  A    between atoms: CB_3  and  CG_4
REMARK    4  A    between atoms: N_9  and  CA_10
REMARK    5  A    between atoms: CA_10  and  CB_11
REMARK    6  A    between atoms: CA_10  and  C_18
REMARK    7  A    between atoms: CB_11  and  CG_12
REMARK                            x       y       z     vdW  Elec       q    Type
REMARK                         _______ _______ _______ _____ _____    ______ ____
ROOT
ATOM     10  CA  PHE A   2      18.413  67.928  12.720  0.00  0.00    +0.000 C 
ENDROOT
BRANCH  10   9
ATOM      7  C   ASP A   1      16.574  67.140  11.284  0.00  0.00    +0.000 C 
ATOM      8  O   ASP A   1      15.805  67.825  11.960  0.00  0.00    +0.000 OA
ATOM      9  N   PHE A   2      17.922  66.813  11.665  0.00  0.00    +0.000 NA
BRANCH   7   2
ATOM      1  N   ASP A   1      17.201  65.874   9.403  0.00  0.00    +0.000 NA
ATOM      2  CA  ASP A   1      16.336  67.202   9.662  0.00  0.00    +0.000 C 
BRANCH   2   3
ATOM      3  CB  ASP A   1      14.916  66.310   9.731  0.00  0.00    +0.000 C 
BRANCH   3   4
ATOM      4  CG  ASP A   1      14.051  66.927   8.717  0.00  0.00    +0.000 C 
ATOM      5  OD1 ASP A   1      14.458  66.911   7.519  0.00  0.00    +0.000 OA
ATOM      6  OD2 ASP A   1      12.739  67.260   8.949  0.00  0.00    +0.000 OA
ENDBRANCH   3   4
ENDBRANCH   2   3
ENDBRANCH   7   2
ENDBRANCH  10   9
BRANCH  10  18
ATOM     18  C   PHE A   2      18.734  66.865  13.932  0.00  0.00    +0.000 C 
ATOM     19  O   PHE A   2      18.318  65.722  13.811  0.00  0.00    +0.000 OA
ATOM     20  OXT PHE A   2      18.336  67.505  15.115  0.00  0.00    +0.000 OA
ENDBRANCH  10  18
BRANCH  10  11
ATOM     11  CB  PHE A   2      19.972  67.920  12.113  0.00  0.00    +0.000 C 
BRANCH  11  12
ATOM     12  CG  PHE A   2      20.559  69.231  12.383  0.00  0.00    +0.000 A 
ATOM     13  CD1 PHE A   2      19.772  70.212  12.977  0.00  0.00    +0.000 A 
ATOM     14  CE1 PHE A   2      20.268  71.056  13.964  0.00  0.00    +0.000 A 
ATOM     15  CZ  PHE A   2      21.595  70.993  14.331  0.00  0.00    +0.000 A 
ATOM     16  CE2 PHE A   2      22.445  70.260  13.523  0.00  0.00    +0.000 A 
ATOM     17  CD2 PHE A   2      21.853  69.171  12.901  0.00  0.00    +0.000 A 
ENDBRANCH  11  12
ENDBRANCH  10  11
TORSDOF 7
ENDMDL
MODEL 4
REMARK VINA RESULT:      -4.7     15.977     18.134
REMARK  Name = 
REMARK  7 active torsions:
REMARK  status: ('A' for Active; 'I' for Inactive)
REMARK    1  A    between atoms: CA_2  and  CB_3
REMARK    2  A    between atoms: CA_2  and  C_7
REMARK    3  A    between atoms: CB_3  and  CG_4
REMARK    4  A    between atoms: N_9  and  CA_10
REMARK    5  A    between atoms: CA_10  and  CB_11
REMARK    6  A    between atoms: CA_10  and  C_18
REMARK    7  A    between atoms: CB_11  and  CG_12
REMARK                            x       y       z     vdW  Elec       q    Type
REMARK                         _______ _______ _______ _____ _____    ______ ____
ROOT
ATOM     10  CA  PHE A   2      16.658  58.820 -18.261  0.00  0.00    +0.000 C 
ENDROOT
BRANCH  10   9
ATOM      7  C   ASP A   1      16.261  60.734 -16.764  0.00  0.00    +0.000 C 
ATOM      8  O   ASP A   1      15.532  61.213 -17.635  0.00  0.00    +0.000 OA
ATOM      9  N   PHE A   2      17.176  59.645 -16.976  0.00  0.00    +0.000 NA
BRANCH   7   2
ATOM      1  N   ASP A   1      17.137  61.187 -14.629  0.00  0.00    +0.000 NA
ATOM      2  CA  ASP A   1      15.689  60.836 -15.230  0.00  0.00    +0.000 C 
BRANCH   2   3
ATOM      3  CB  ASP A   1      15.309  62.464 -15.368  0.00  0.00    +0.000 C 
BRANCH   3   4
ATOM      4  CG  ASP A   1      15.289  62.950 -13.982  0.00  0.00    +0.000 C 
ATOM      5  OD1 ASP A   1      15.975  63.979 -13.717  0.00  0.00    +0.000 OA
ATOM      6  OD2 ASP A   1      14.375  62.526 -13.049  0.00  0.00    +0.000 OA
ENDBRANCH   3   4
ENDBRANCH   2   3
ENDBRANCH   7   2
ENDBRANCH  10   9
BRANCH  10  18
ATOM     18  C   PHE A   2      18.041  57.952 -18.455  0.00  0.00    +0.000 C 
ATOM     19  O   PHE A   2      17.972  56.738 -18.343  0.00  0.00    +0.000 OA
ATOM     20  OXT PHE A   2      18.992  58.559 -17.620  0.00  0.00    +0.000 OA
ENDBRANCH  10  18
BRANCH  10  11
ATOM     11  CB  PHE A   2      15.906  57.668 -17.308  0.00  0.00    +0.000 C 
BRANCH  11  12
ATOM     12  CG  PHE A   2      14.513  57.577 -17.741  0.00  0.00    +0.000 A 
ATOM     13  CD1 PHE A   2      13.503  57.721 -16.795  0.00  0.00    +0.000 A 
ATOM     14  CE1 PHE A   2      12.345  58.442 -17.060  0.00  0.00    +0.000 A 
ATOM     15  CZ  PHE A   2      12.128  58.976 -18.312  0.00  0.00    +0.000 A 
ATOM     16  CE2 PHE A   2      12.960  58.559 -19.334  0.00  0.00    +0.000 A 
ATOM     17  CD2 PHE A   2      14.252  58.248 -18.936  0.00  0.00    +0.000 A 
ENDBRANCH  11  12
ENDBRANCH  10  11
TORSDOF 7
ENDMDL
MODEL 5
REMARK VINA RESULT:      -4.7     35.174     37.614
REMARK  Name = 
REMARK  7 active torsions:
REMARK  status: ('A' for Active; 'I' for Inactive)
REMARK    1  A    between atoms: CA_2  and  CB_3
REMARK    2  A    between atoms: CA_2  and  C_7
REMARK    3  A    between atoms: CB_3  and  CG_4
REMARK    4  A    between atoms: N_9  and  CA_10
REMARK    5  A    between atoms: CA_10  and  CB_11
REMARK    6  A    between atoms: CA_10  and  C_18
REMARK    7  A    between atoms: CB_11  and  CG_12
REMARK                            x       y       z     vdW  Elec       q    Type
REMARK                         _______ _______ _______ _____ _____    ______ ____
ROOT
ATOM     10  CA  PHE A   2      18.159  67.232  12.086  0.00  0.00    +0.000 C 
ENDROOT
BRANCH  10   9
ATOM      7  C   ASP A   1      19.229  65.030  12.350  0.00  0.00    +0.000 C 
ATOM      8  O   ASP A   1      19.786  65.214  11.266  0.00  0.00    +0.000 OA
ATOM      9  N   PHE A   2      18.123  65.807  12.840  0.00  0.00    +0.000 NA
BRANCH   7   2
ATOM      1  N   ASP A   1      21.176  65.651  13.515  0.00  0.00    +0.000 NA
ATOM      2  CA  ASP A   1      20.174  64.395  13.532  0.00  0.00    +0.000 C 
BRANCH   2   3
ATOM      3  CB  ASP A   1      19.272  65.083  14.767  0.00  0.00    +0.000 C 
BRANCH   3   4
ATOM      4  CG  ASP A   1      19.275  64.066  15.827  0.00  0.00    +0.000 C 
ATOM      5  OD1 ASP A   1      19.672  64.423  16.974  0.00  0.00    +0.000 OA
ATOM      6  OD2 ASP A   1      18.628  62.860  15.715  0.00  0.00    +0.000 OA
ENDBRANCH   3   4
ENDBRANCH   2   3
ENDBRANCH   7   2
ENDBRANCH  10   9
BRANCH  10  18
ATOM     18  C   PHE A   2      16.554  67.260  11.731  0.00  0.00    +0.000 C 
ATOM     19  O   PHE A   2      15.767  67.360  12.661  0.00  0.00    +0.000 OA
ATOM     20  OXT PHE A   2      16.329  66.156  10.896  0.00  0.00    +0.000 OA
ENDBRANCH  10  18
BRANCH  10  11
ATOM     11  CB  PHE A   2      17.998  68.077  13.521  0.00  0.00    +0.000 C 
BRANCH  11  12
ATOM     12  CG  PHE A   2      19.278  68.725  13.799  0.00  0.00    +0.000 A 
ATOM     13  CD1 PHE A   2      19.606  69.890  13.114  0.00  0.00    +0.000 A 
ATOM     14  CE1 PHE A   2      20.225  70.964  13.742  0.00  0.00    +0.000 A 
ATOM     15  CZ  PHE A   2      20.606  70.872  15.064  0.00  0.00    +0.000 A 
ATOM     16  CE2 PHE A   2      20.584  69.618  15.646  0.00  0.00    +0.000 A 
ATOM     17  CD2 PHE A   2      19.601  68.771  15.156  0.00  0.00    +0.000 A 
ENDBRANCH  11  12
ENDBRANCH  10  11
TORSDOF 7
ENDMDL
MODEL 6
REMARK VINA RESULT:      -4.6     35.057     36.913
REMARK  Name = 
REMARK  7 active torsions:
REMARK  status: ('A' for Active; 'I' for Inactive)
REMARK    1  A    between atoms: CA_2  and  CB_3
REMARK    2  A    between atoms: CA_2  and  C_7
REMARK    3  A    between atoms: CB_3  and  CG_4
REMARK    4  A    between atoms: N_9  and  CA_10
REMARK    5  A    between atoms: CA_10  and  CB_11
REMARK    6  A    between atoms: CA_10  and  C_18
REMARK    7  A    between atoms: CB_11  and  CG_12
REMARK                            x       y       z     vdW  Elec       q    Type
REMARK                         _______ _______ _______ _____ _____    ______ ____
ROOT
ATOM     10  CA  PHE A   2      26.452  44.722  16.408  0.00  0.00    +0.000 C 
ENDROOT
BRANCH  10   9
ATOM      7  C   ASP A   1      26.825  46.654  14.927  0.00  0.00    +0.000 C 
ATOM      8  O   ASP A   1      26.027  46.152  14.135  0.00  0.00    +0.000 OA
ATOM      9  N   PHE A   2      27.418  45.958  16.038  0.00  0.00    +0.000 NA
BRANCH   7   2
ATOM      1  N   ASP A   1      25.369  48.091  16.089  0.00  0.00    +0.000 NA
ATOM      2  CA  ASP A   1      26.668  48.270  15.160  0.00  0.00    +0.000 C 
BRANCH   2   3
ATOM      3  CB  ASP A   1      27.674  48.281  16.503  0.00  0.00    +0.000 C 
BRANCH   3   4
ATOM      4  CG  ASP A   1      28.283  49.617  16.488  0.00  0.00    +0.000 C 
ATOM      5  OD1 ASP A   1      27.827  50.473  17.300  0.00  0.00    +0.000 OA
ATOM      6  OD2 ASP A   1      29.470  49.896  15.856  0.00  0.00    +0.000 OA
ENDBRANCH   3   4
ENDBRANCH   2   3
ENDBRANCH   7   2
ENDBRANCH  10   9
BRANCH  10  18
ATOM     18  C   PHE A   2      27.668  43.680  16.778  0.00  0.00    +0.000 C 
ATOM     19  O   PHE A   2      28.678  43.717  16.092  0.00  0.00    +0.000 OA
ATOM     20  OXT PHE A   2      27.072  42.413  16.863  0.00  0.00    +0.000 OA
ENDBRANCH  10  18
BRANCH  10  11
ATOM     11  CB  PHE A   2      26.247  45.258  17.979  0.00  0.00    +0.000 C 
BRANCH  11  12
ATOM     12  CG  PHE A   2      24.892  44.903  18.395  0.00  0.00    +0.000 A 
ATOM     13  CD1 PHE A   2      23.908  44.749  17.424  0.00  0.00    +0.000 A 
ATOM     14  CE1 PHE A   2      22.967  43.727  17.485  0.00  0.00    +0.000 A 
ATOM     15  CZ  PHE A   2      22.936  42.874  18.567  0.00  0.00    +0.000 A 
ATOM     16  CE2 PHE A   2      23.686  43.223  19.675  0.00  0.00    +0.000 A 
ATOM     17  CD2 PHE A   2      24.848  43.924  19.387  0.00  0.00    +0.000 A 
ENDBRANCH  11  12
ENDBRANCH  10  11
TORSDOF 7
ENDMDL
MODEL 7
REMARK VINA RESULT:      -4.6     19.943     21.625
REMARK  Name = 
REMARK  7 active torsions:
REMARK  status: ('A' for Active; 'I' for Inactive)
REMARK    1  A    between atoms: CA_2  and  CB_3
REMARK    2  A    between atoms: CA_2  and  C_7
REMARK    3  A    between atoms: CB_3  and  CG_4
REMARK    4  A    between atoms: N_9  and  CA_10
REMARK    5  A    between atoms: CA_10  and  CB_11
REMARK    6  A    between atoms: CA_10  and  C_18
REMARK    7  A    between atoms: CB_11  and  CG_12
REMARK                            x       y       z     vdW  Elec       q    Type
REMARK                         _______ _______ _______ _____ _____    ______ ____
ROOT
ATOM     10  CA  PHE A   2      25.290  51.696 -15.457  0.00  0.00    +0.000 C 
ENDROOT
BRANCH  10   9
ATOM      7  C   ASP A   1      27.129  50.988 -13.980  0.00  0.00    +0.000 C 
ATOM      8  O   ASP A   1      26.386  50.108 -13.543  0.00  0.00    +0.000 OA
ATOM      9  N   PHE A   2      26.688  52.108 -14.769  0.00  0.00    +0.000 NA
BRANCH   7   2
ATOM      1  N   ASP A   1      28.253  49.708 -15.602  0.00  0.00    +0.000 NA
ATOM      2  CA  ASP A   1      28.673  50.525 -14.284  0.00  0.00    +0.000 C 
BRANCH   2   3
ATOM      3  CB  ASP A   1      29.016  51.892 -15.194  0.00  0.00    +0.000 C 
BRANCH   3   4
ATOM      4  CG  ASP A   1      30.217  52.455 -14.563  0.00  0.00    +0.000 C 
ATOM      5  OD1 ASP A   1      31.230  52.633 -15.300  0.00  0.00    +0.000 OA
ATOM      6  OD2 ASP A   1      30.211  53.039 -13.321  0.00  0.00    +0.000 OA
ENDBRANCH   3   4
ENDBRANCH   2   3
ENDBRANCH   7   2
ENDBRANCH  10   9
BRANCH  10  18
ATOM     18  C   PHE A   2      24.368  52.715 -14.556  0.00  0.00    +0.000 C 
ATOM     19  O   PHE A   2      23.209  52.394 -14.340  0.00  0.00    +0.000 OA
ATOM     20  OXT PHE A   2      24.520  53.982 -15.138  0.00  0.00    +0.000 OA
ENDBRANCH  10  18
BRANCH  10  11
ATOM     11  CB  PHE A   2      25.506  52.781 -16.713  0.00  0.00    +0.000 C 
BRANCH  11  12
ATOM     12  CG  PHE A   2      25.783  52.008 -17.922  0.00  0.00    +0.000 A 
ATOM     13  CD1 PHE A   2      27.042  52.102 -18.508  0.00  0.00    +0.000 A 
ATOM     14  CE1 PHE A   2      27.698  50.990 -19.022  0.00  0.00    +0.000 A 
ATOM     15  CZ  PHE A   2      27.077  49.760 -19.036  0.00  0.00    +0.000 A 
ATOM     16  CE2 PHE A   2      25.722  49.728 -18.765  0.00  0.00    +0.000 A 
ATOM     17  CD2 PHE A   2      25.287  50.705 -17.881  0.00  0.00    +0.000 A 
ENDBRANCH  11  12
ENDBRANCH  10  11
TORSDOF 7
ENDMDL
MODEL 8
REMARK VINA RESULT:      -4.6     22.639     25.006
REMARK  Name = 
REMARK  7 active torsions:
REMARK  status: ('A' for Active; 'I' for Inactive)
REMARK    1  A    between atoms: CA_2  and  CB_3
REMARK    2  A    between atoms: CA_2  and  C_7
REMARK    3  A    between atoms: CB_3  and  CG_4
REMARK    4  A    between atoms: N_9  and  CA_10
REMARK    5  A    between atoms: CA_10  and  CB_11
REMARK    6  A    between atoms: CA_10  and  C_18
REMARK    7  A    between atoms: CB_11  and  CG_12
REMARK                            x       y       z     vdW  Elec       q    Type
REMARK                         _______ _______ _______ _____ _____    ______ ____
ROOT
ATOM     10  CA  PHE A   2       9.089  58.143   6.921  0.00  0.00    +0.000 C 
ENDROOT
BRANCH  10   9
ATOM      7  C   ASP A   1      11.367  57.663   7.723  0.00  0.00    +0.000 C 
ATOM      8  O   ASP A   1      11.034  56.484   7.845  0.00  0.00    +0.000 OA
ATOM      9  N   PHE A   2      10.450  58.754   7.533  0.00  0.00    +0.000 NA
BRANCH   7   2
ATOM      1  N   ASP A   1      12.421  57.253   5.659  0.00  0.00    +0.000 NA
ATOM      2  CA  ASP A   1      12.847  57.914   7.060  0.00  0.00    +0.000 C 
BRANCH   2   3
ATOM      3  CB  ASP A   1      12.453  59.446   6.501  0.00  0.00    +0.000 C 
BRANCH   3   4
ATOM      4  CG  ASP A   1      13.671  60.236   6.721  0.00  0.00    +0.000 C 
ATOM      5  OD1 ASP A   1      14.369  59.957   7.739  0.00  0.00    +0.000 OA
ATOM      6  OD2 ASP A   1      14.225  61.049   5.762  0.00  0.00    +0.000 OA
ENDBRANCH   3   4
ENDBRANCH   2   3
ENDBRANCH   7   2
ENDBRANCH  10   9
BRANCH  10  18
ATOM     18  C   PHE A   2       8.109  58.732   8.102  0.00  0.00    +0.000 C 
ATOM     19  O   PHE A   2       8.159  59.929   8.339  0.00  0.00    +0.000 OA
ATOM     20  OXT PHE A   2       8.323  57.910   9.218  0.00  0.00    +0.000 OA
ENDBRANCH  10  18
BRANCH  10  11
ATOM     11  CB  PHE A   2       8.876  59.452   5.900  0.00  0.00    +0.000 C 
BRANCH  11  12
ATOM     12  CG  PHE A   2       9.009  58.969   4.527  0.00  0.00    +0.000 A 
ATOM     13  CD1 PHE A   2       9.927  59.584   3.682  0.00  0.00    +0.000 A 
ATOM     14  CE1 PHE A   2      10.721  58.856   2.804  0.00  0.00    +0.000 A 
ATOM     15  CZ  PHE A   2      10.562  57.491   2.689  0.00  0.00    +0.000 A 
ATOM     16  CE2 PHE A   2       9.441  56.930   3.273  0.00  0.00    +0.000 A 
ATOM     17  CD2 PHE A   2       9.002  57.578   4.419  0.00  0.00    +0.000 A 
ENDBRANCH  11  12
ENDBRANCH  10  11
TORSDOF 7
ENDMDL
MODEL 9
REMARK VINA RESULT:      -4.5     15.937     18.189
REMARK  Name = 
REMARK  7 active torsions:
REMARK  status: ('A' for Active; 'I' for Inactive)
REMARK    1  A    between atoms: CA_2  and  CB_3
REMARK    2  A    between atoms: CA_2  and  C_7
REMARK    3  A    between atoms: CB_3  and  CG_4
REMARK    4  A    between atoms: N_9  and  CA_10
REMARK    5  A    between atoms: CA_10  and  CB_11
REMARK    6  A    between atoms: CA_10  and  C_18
REMARK    7  A    between atoms: CB_11  and  CG_12
REMARK                            x       y       z     vdW  Elec       q    Type
REMARK                         _______ _______ _______ _____ _____    ______ ____
ROOT
ATOM     10  CA  PHE A   2      17.134  59.283 -17.143  0.00  0.00    +0.000 C 
ENDROOT
BRANCH  10   9
ATOM      7  C   ASP A   1      18.027  57.982 -19.034  0.00  0.00    +0.000 C 
ATOM      8  O   ASP A   1      18.164  57.031 -18.264  0.00  0.00    +0.000 OA
ATOM      9  N   PHE A   2      17.780  59.337 -18.619  0.00  0.00    +0.000 NA
BRANCH   7   2
ATOM      1  N   ASP A   1      15.946  57.331 -19.917  0.00  0.00    +0.000 NA
ATOM      2  CA  ASP A   1      17.412  57.614 -20.510  0.00  0.00    +0.000 C 
BRANCH   2   3
ATOM      3  CB  ASP A   1      17.008  59.205 -20.854  0.00  0.00    +0.000 C 
BRANCH   3   4
ATOM      4  CG  ASP A   1      17.244  59.334 -22.298  0.00  0.00    +0.000 C 
ATOM      5  OD1 ASP A   1      16.271  59.092 -23.070  0.00  0.00    +0.000 OA
ATOM      6  OD2 ASP A   1      18.349  59.954 -22.828  0.00  0.00    +0.000 OA
ENDBRANCH   3   4
ENDBRANCH   2   3
ENDBRANCH   7   2
ENDBRANCH  10   9
BRANCH  10  18
ATOM     18  C   PHE A   2      18.150  60.395 -16.487  0.00  0.00    +0.000 C 
ATOM     19  O   PHE A   2      17.814  60.926 -15.440  0.00  0.00    +0.000 OA
ATOM     20  OXT PHE A   2      18.451  61.293 -17.522  0.00  0.00    +0.000 OA
ENDBRANCH  10  18
BRANCH  10  11
ATOM     11  CB  PHE A   2      15.950  60.396 -17.543  0.00  0.00    +0.000 C 
BRANCH  11  12
ATOM     12  CG  PHE A   2      14.664  59.844 -17.122  0.00  0.00    +0.000 A 
ATOM     13  CD1 PHE A   2      13.694  59.585 -18.086  0.00  0.00    +0.000 A 
ATOM     14  CE1 PHE A   2      12.905  58.442 -18.047  0.00  0.00    +0.000 A 
ATOM     15  CZ  PHE A   2      13.009  57.560 -16.992  0.00  0.00    +0.000 A 
ATOM     16  CE2 PHE A   2      13.722  57.976 -15.883  0.00  0.00    +0.000 A 
ATOM     17  CD2 PHE A   2      14.771  58.839 -16.161  0.00  0.00    +0.000 A 
ENDBRANCH  11  12
ENDBRANCH  10  11
TORSDOF 7
ENDMDL
MODEL 10
REMARK VINA RESULT:      -4.5     22.103     24.481
REMARK  Name = 
REMARK  7 active torsions:
REMARK  status: ('A' for Active; 'I' for Inactive)
REMARK    1  A    between atoms: CA_2  and  CB_3
REMARK    2  A    between atoms: CA_2  and  C_7
REMARK    3  A    between atoms: CB_3  and  CG_4
REMARK    4  A    between atoms: N_9  and  CA_10
REMARK    5  A    between atoms: CA_10  and  CB_11
REMARK    6  A    between atoms: CA_10  and  C_18
REMARK    7  A    between atoms: CB_11  and  CG_12
REMARK                            x       y       z     vdW  Elec       q    Type
REMARK                         _______ _______ _______ _____ _____    ______ ____
ROOT
ATOM     10  CA  PHE A   2      25.322  56.005  -6.903  0.00  0.00    +0.000 C 
ENDROOT
BRANCH  10   9
ATOM      7  C   ASP A   1      27.359  56.574  -8.164  0.00  0.00    +0.000 C 
ATOM      8  O   ASP A   1      26.636  56.953  -9.086  0.00  0.00    +0.000 OA
ATOM      9  N   PHE A   2      26.912  55.782  -7.050  0.00  0.00    +0.000 NA
BRANCH   7   2
ATOM      1  N   ASP A   1      28.904  57.876  -9.370  0.00  0.00    +0.000 NA
ATOM      2  CA  ASP A   1      28.634  57.548  -7.820  0.00  0.00    +0.000 C 
BRANCH   2   3
ATOM      3  CB  ASP A   1      27.679  58.917  -7.656  0.00  0.00    +0.000 C 
BRANCH   3   4
ATOM      4  CG  ASP A   1      28.050  59.462  -6.344  0.00  0.00    +0.000 C 
ATOM      5  OD1 ASP A   1      29.284  59.554  -6.081  0.00  0.00    +0.000 OA
ATOM      6  OD2 ASP A   1      27.164  60.117  -5.523  0.00  0.00    +0.000 OA
ENDBRANCH   3   4
ENDBRANCH   2   3
ENDBRANCH   7   2
ENDBRANCH  10   9
BRANCH  10  18
ATOM     18  C   PHE A   2      24.985  54.450  -6.488  0.00  0.00    +0.000 C 
ATOM     19  O   PHE A   2      25.605  53.563  -7.054  0.00  0.00    +0.000 OA
ATOM     20  OXT PHE A   2      23.590  54.328  -6.571  0.00  0.00    +0.000 OA
ENDBRANCH  10  18
BRANCH  10  11
ATOM     11  CB  PHE A   2      25.470  56.540  -5.325  0.00  0.00    +0.000 C 
BRANCH  11  12
ATOM     12  CG  PHE A   2      24.617  57.718  -5.175  0.00  0.00    +0.000 A 
ATOM     13  CD1 PHE A   2      24.156  58.365  -6.317  0.00  0.00    +0.000 A 
ATOM     14  CE1 PHE A   2      22.857  58.849  -6.415  0.00  0.00    +0.000 A 
ATOM     15  CZ  PHE A   2      22.001  58.769  -5.337  0.00  0.00    +0.000 A 
ATOM     16  CE2 PHE A   2      22.550  58.433  -4.112  0.00  0.00    +0.000 A 
ATOM     17  CD2 PHE A   2      23.645  57.585  -4.184  0.00  0.00    +0.000 A 
ENDBRANCH  11  12
ENDBRANCH  10  11
TORSDOF 7
ENDMDL
