MODEL 1
REMARK VINA RESULT:      -5.2      0.000      0.000
REMARK  Name = 
REMARK  7 active torsions:
REMARK  status: ('A' for Active; 'I' for Inactive)
REMARK    1  A    between atoms: CA_2  and  CB_3
REMARK    2  A    between atoms: CA_2  and  C_7
REMARK    3  A    between atoms: CB_3  and  CG_4
REMARK    4  A    between atoms: N_9  and  CA_10
REMARK    5  A    between atoms: CA_10  and  CB_11
REMARK    6  A    between atoms: CA_10  and  C_17
REMARK    7  A    between atoms: CB_11  and  CG_12
REMARK                            x       y       z     vdW  Elec       q    Type
REMARK                         _______ _______ _______ _____ _____    ______ ____
ROOT
ATOM     10  CA  HIS A   2       8.098  58.724   6.959  0.00  0.00    +0.000 C 
ENDROOT
BRANCH  10   9
ATOM      7  C   ASP A   1      10.093  57.327   6.203  0.00  0.00    +0.000 C 
ATOM      8  O   ASP A   1       9.318  56.511   5.695  0.00  0.00    +0.000 OA
ATOM      9  N   HIS A   2       9.603  58.615   6.503  0.00  0.00    +0.000 NA
BRANCH   7   2
ATOM      1  N   ASP A   1      11.270  55.332   6.530  0.00  0.00    +0.000 NA
ATOM      2  CA  ASP A   1      11.219  56.754   7.206  0.00  0.00    +0.000 C 
BRANCH   2   3
ATOM      3  CB  ASP A   1      12.441  57.302   6.252  0.00  0.00    +0.000 C 
BRANCH   3   4
ATOM      4  CG  ASP A   1      13.009  58.422   7.015  0.00  0.00    +0.000 C 
ATOM      5  OD1 ASP A   1      13.244  58.403   8.247  0.00  0.00    +0.000 OA
ATOM      6  OD2 ASP A   1      13.566  59.494   6.312  0.00  0.00    +0.000 OA
ENDBRANCH   3   4
ENDBRANCH   2   3
ENDBRANCH   7   2
ENDBRANCH  10   9
BRANCH  10  17
ATOM     17  C   HIS A   2       8.103  60.333   6.890  0.00  0.00    +0.000 C 
ATOM     18  O   HIS A   2       7.931  60.888   5.819  0.00  0.00    +0.000 OA
ATOM     19  OXT HIS A   2       8.450  60.925   8.094  0.00  0.00    +0.000 OA
ENDBRANCH  10  17
BRANCH  10  11
ATOM     11  CB  HIS A   2       8.513  58.673   8.551  0.00  0.00    +0.000 C 
BRANCH  11  12
ATOM     12  CG  HIS A   2       7.611  57.704   9.189  0.00  0.00    +0.000 A 
ATOM     13  CD2 HIS A   2       7.211  56.541   8.540  0.00  0.00    +0.000 A 
ATOM     14  NE2 HIS A   2       6.356  55.883   9.326  0.00  0.00    +0.000 NA
ATOM     15  CE1 HIS A   2       6.089  56.665  10.375  0.00  0.00    +0.000 A 
ATOM     16  ND1 HIS A   2       6.845  57.779  10.280  0.00  0.00    +0.000 NA
ENDBRANCH  11  12
ENDBRANCH  10  11
TORSDOF 7
ENDMDL
MODEL 2
REMARK VINA RESULT:      -5.1      2.874      6.388
REMARK  Name = 
REMARK  7 active torsions:
REMARK  status: ('A' for Active; 'I' for Inactive)
REMARK    1  A    between atoms: CA_2  and  CB_3
REMARK    2  A    between atoms: CA_2  and  C_7
REMARK    3  A    between atoms: CB_3  and  CG_4
REMARK    4  A    between atoms: N_9  and  CA_10
REMARK    5  A    between atoms: CA_10  and  CB_11
REMARK    6  A    between atoms: CA_10  and  C_17
REMARK    7  A    between atoms: CB_11  and  CG_12
REMARK                            x       y       z     vdW  Elec       q    Type
REMARK                         _______ _______ _______ _____ _____    ______ ____
ROOT
ATOM     10  CA  HIS A   2       9.977  56.929   7.210  0.00  0.00    +0.000 C 
ENDROOT
BRANCH  10   9
ATOM      7  C   ASP A   1       7.918  56.408   8.621  0.00  0.00    +0.000 C 
ATOM      8  O   ASP A   1       7.417  55.819   7.656  0.00  0.00    +0.000 OA
ATOM      9  N   HIS A   2       9.308  56.646   8.608  0.00  0.00    +0.000 NA
BRANCH   7   2
ATOM      1  N   ASP A   1       6.438  58.112   8.003  0.00  0.00    +0.000 NA
ATOM      2  CA  ASP A   1       7.019  57.533   9.348  0.00  0.00    +0.000 C 
BRANCH   2   3
ATOM      3  CB  ASP A   1       5.746  56.505   9.509  0.00  0.00    +0.000 C 
BRANCH   3   4
ATOM      4  CG  ASP A   1       5.948  55.897  10.831  0.00  0.00    +0.000 C 
ATOM      5  OD1 ASP A   1       5.752  54.688  11.101  0.00  0.00    +0.000 OA
ATOM      6  OD2 ASP A   1       6.641  56.626  11.802  0.00  0.00    +0.000 OA
ENDBRANCH   3   4
ENDBRANCH   2   3
ENDBRANCH   7   2
ENDBRANCH  10   9
BRANCH  10  17
ATOM     17  C   HIS A   2      11.095  55.789   7.417  0.00  0.00    +0.000 C 
ATOM     18  O   HIS A   2      11.354  55.029   6.501  0.00  0.00    +0.000 OA
ATOM     19  OXT HIS A   2      11.563  55.720   8.719  0.00  0.00    +0.000 OA
ENDBRANCH  10  17
BRANCH  10  11
ATOM     11  CB  HIS A   2      10.915  58.129   7.834  0.00  0.00    +0.000 C 
BRANCH  11  12
ATOM     12  CG  HIS A   2      11.814  58.564   6.757  0.00  0.00    +0.000 A 
ATOM     13  CD2 HIS A   2      12.988  59.260   7.022  0.00  0.00    +0.000 A 
ATOM     14  NE2 HIS A   2      13.573  59.574   5.864  0.00  0.00    +0.000 NA
ATOM     15  CE1 HIS A   2      12.731  59.236   4.883  0.00  0.00    +0.000 A 
ATOM     16  ND1 HIS A   2      11.656  58.635   5.432  0.00  0.00    +0.000 NA
ENDBRANCH  11  12
ENDBRANCH  10  11
TORSDOF 7
ENDMDL
MODEL 3
REMARK VINA RESULT:      -5.0     21.182     23.187
REMARK  Name = 
REMARK  7 active torsions:
REMARK  status: ('A' for Active; 'I' for Inactive)
REMARK    1  A    between atoms: CA_2  and  CB_3
REMARK    2  A    between atoms: CA_2  and  C_7
REMARK    3  A    between atoms: CB_3  and  CG_4
REMARK    4  A    between atoms: N_9  and  CA_10
REMARK    5  A    between atoms: CA_10  and  CB_11
REMARK    6  A    between atoms: CA_10  and  C_17
REMARK    7  A    between atoms: CB_11  and  CG_12
REMARK                            x       y       z     vdW  Elec       q    Type
REMARK                         _______ _______ _______ _____ _____    ______ ____
ROOT
ATOM     10  CA  HIS A   2      17.049  66.632 -13.101  0.00  0.00    +0.000 C 
ENDROOT
BRANCH  10   9
ATOM      7  C   ASP A   1      15.760  64.452 -12.801  0.00  0.00    +0.000 C 
ATOM      8  O   ASP A   1      16.030  64.143 -13.967  0.00  0.00    +0.000 OA
ATOM      9  N   HIS A   2      16.530  65.461 -12.185  0.00  0.00    +0.000 NA
BRANCH   7   2
ATOM      1  N   ASP A   1      13.665  64.916 -13.731  0.00  0.00    +0.000 NA
ATOM      2  CA  ASP A   1      14.212  64.379 -12.355  0.00  0.00    +0.000 C 
BRANCH   2   3
ATOM      3  CB  ASP A   1      14.074  62.819 -12.857  0.00  0.00    +0.000 C 
BRANCH   3   4
ATOM      4  CG  ASP A   1      14.378  62.033 -11.653  0.00  0.00    +0.000 C 
ATOM      5  OD1 ASP A   1      14.074  62.368 -10.484  0.00  0.00    +0.000 OA
ATOM      6  OD2 ASP A   1      14.806  60.712 -11.809  0.00  0.00    +0.000 OA
ENDBRANCH   3   4
ENDBRANCH   2   3
ENDBRANCH   7   2
ENDBRANCH  10   9
BRANCH  10  17
ATOM     17  C   HIS A   2      18.235  67.020 -12.083  0.00  0.00    +0.000 C 
ATOM     18  O   HIS A   2      19.293  66.418 -12.138  0.00  0.00    +0.000 OA
ATOM     19  OXT HIS A   2      17.849  67.949 -11.131  0.00  0.00    +0.000 OA
ENDBRANCH  10  17
BRANCH  10  11
ATOM     11  CB  HIS A   2      15.980  67.699 -12.448  0.00  0.00    +0.000 C 
BRANCH  11  12
ATOM     12  CG  HIS A   2      15.092  68.126 -13.538  0.00  0.00    +0.000 A 
ATOM     13  CD2 HIS A   2      13.788  68.547 -13.296  0.00  0.00    +0.000 A 
ATOM     14  NE2 HIS A   2      13.201  68.818 -14.464  0.00  0.00    +0.000 NA
ATOM     15  CE1 HIS A   2      14.036  68.435 -15.433  0.00  0.00    +0.000 A 
ATOM     16  ND1 HIS A   2      15.180  68.002 -14.865  0.00  0.00    +0.000 NA
ENDBRANCH  11  12
ENDBRANCH  10  11
TORSDOF 7
ENDMDL
MODEL 4
REMARK VINA RESULT:      -5.0      2.345      6.140
REMARK  Name = 
REMARK  7 active torsions:
REMARK  status: ('A' for Active; 'I' for Inactive)
REMARK    1  A    between atoms: CA_2  and  CB_3
REMARK    2  A    between atoms: CA_2  and  C_7
REMARK    3  A    between atoms: CB_3  and  CG_4
REMARK    4  A    between atoms: N_9  and  CA_10
REMARK    5  A    between atoms: CA_10  and  CB_11
REMARK    6  A    between atoms: CA_10  and  C_17
REMARK    7  A    between atoms: CB_11  and  CG_12
REMARK                            x       y       z     vdW  Elec       q    Type
REMARK                         _______ _______ _______ _____ _____    ______ ____
ROOT
ATOM     10  CA  HIS A   2      10.570  57.195   6.746  0.00  0.00    +0.000 C 
ENDROOT
BRANCH  10   9
ATOM      7  C   ASP A   1       8.303  57.030   7.902  0.00  0.00    +0.000 C 
ATOM      8  O   ASP A   1       7.938  56.212   7.050  0.00  0.00    +0.000 OA
ATOM      9  N   HIS A   2       9.685  57.269   8.048  0.00  0.00    +0.000 NA
BRANCH   7   2
ATOM      1  N   ASP A   1       8.516  59.254   8.595  0.00  0.00    +0.000 NA
ATOM      2  CA  ASP A   1       7.339  58.295   8.173  0.00  0.00    +0.000 C 
BRANCH   2   3
ATOM      3  CB  ASP A   1       7.438  58.789   6.608  0.00  0.00    +0.000 C 
BRANCH   3   4
ATOM      4  CG  ASP A   1       6.391  59.814   6.495  0.00  0.00    +0.000 C 
ATOM      5  OD1 ASP A   1       5.406  59.918   7.264  0.00  0.00    +0.000 OA
ATOM      6  OD2 ASP A   1       6.611  60.903   5.648  0.00  0.00    +0.000 OA
ENDBRANCH   3   4
ENDBRANCH   2   3
ENDBRANCH   7   2
ENDBRANCH  10   9
BRANCH  10  17
ATOM     17  C   HIS A   2      11.249  55.802   7.182  0.00  0.00    +0.000 C 
ATOM     18  O   HIS A   2      11.321  54.891   6.376  0.00  0.00    +0.000 OA
ATOM     19  OXT HIS A   2      11.571  55.754   8.529  0.00  0.00    +0.000 OA
ENDBRANCH  10  17
BRANCH  10  11
ATOM     11  CB  HIS A   2      11.751  58.119   7.424  0.00  0.00    +0.000 C 
BRANCH  11  12
ATOM     12  CG  HIS A   2      12.535  58.679   6.314  0.00  0.00    +0.000 A 
ATOM     13  CD2 HIS A   2      13.222  59.882   6.440  0.00  0.00    +0.000 A 
ATOM     14  NE2 HIS A   2      13.795  60.174   5.270  0.00  0.00    +0.000 NA
ATOM     15  CE1 HIS A   2      13.365  59.279   4.377  0.00  0.00    +0.000 A 
ATOM     16  ND1 HIS A   2      12.588  58.379   5.014  0.00  0.00    +0.000 NA
ENDBRANCH  11  12
ENDBRANCH  10  11
TORSDOF 7
ENDMDL
MODEL 5
REMARK VINA RESULT:      -4.9     17.752     21.235
REMARK  Name = 
REMARK  7 active torsions:
REMARK  status: ('A' for Active; 'I' for Inactive)
REMARK    1  A    between atoms: CA_2  and  CB_3
REMARK    2  A    between atoms: CA_2  and  C_7
REMARK    3  A    between atoms: CB_3  and  CG_4
REMARK    4  A    between atoms: N_9  and  CA_10
REMARK    5  A    between atoms: CA_10  and  CB_11
REMARK    6  A    between atoms: CA_10  and  C_17
REMARK    7  A    between atoms: CB_11  and  CG_12
REMARK                            x       y       z     vdW  Elec       q    Type
REMARK                         _______ _______ _______ _____ _____    ______ ____
ROOT
ATOM     10  CA  HIS A   2      25.707  57.624  -6.971  0.00  0.00    +0.000 C 
ENDROOT
BRANCH  10   9
ATOM      7  C   ASP A   1      23.528  57.790  -5.657  0.00  0.00    +0.000 C 
ATOM      8  O   ASP A   1      23.389  58.953  -6.052  0.00  0.00    +0.000 OA
ATOM      9  N   HIS A   2      24.423  56.952  -6.354  0.00  0.00    +0.000 NA
BRANCH   7   2
ATOM      1  N   ASP A   1      22.515  58.795  -3.803  0.00  0.00    +0.000 NA
ATOM      2  CA  ASP A   1      23.415  57.530  -4.069  0.00  0.00    +0.000 C 
BRANCH   2   3
ATOM      3  CB  ASP A   1      22.092  56.571  -4.254  0.00  0.00    +0.000 C 
BRANCH   3   4
ATOM      4  CG  ASP A   1      22.381  55.404  -3.409  0.00  0.00    +0.000 C 
ATOM      5  OD1 ASP A   1      22.439  55.425  -2.156  0.00  0.00    +0.000 OA
ATOM      6  OD2 ASP A   1      22.343  54.134  -3.989  0.00  0.00    +0.000 OA
ENDBRANCH   3   4
ENDBRANCH   2   3
ENDBRANCH   7   2
ENDBRANCH  10   9
BRANCH  10  17
ATOM     17  C   HIS A   2      25.973  56.396  -7.978  0.00  0.00    +0.000 C 
ATOM     18  O   HIS A   2      26.989  56.380  -8.649  0.00  0.00    +0.000 OA
ATOM     19  OXT HIS A   2      24.898  55.526  -8.065  0.00  0.00    +0.000 OA
ENDBRANCH  10  17
BRANCH  10  11
ATOM     11  CB  HIS A   2      26.671  57.013  -5.784  0.00  0.00    +0.000 C 
BRANCH  11  12
ATOM     12  CG  HIS A   2      27.542  58.111  -5.343  0.00  0.00    +0.000 A 
ATOM     13  CD2 HIS A   2      27.579  59.329  -6.014  0.00  0.00    +0.000 A 
ATOM     14  NE2 HIS A   2      28.491  60.112  -5.434  0.00  0.00    +0.000 NA
ATOM     15  CE1 HIS A   2      29.134  59.375  -4.523  0.00  0.00    +0.000 A 
ATOM     16  ND1 HIS A   2      28.562  58.154  -4.482  0.00  0.00    +0.000 NA
ENDBRANCH  11  12
ENDBRANCH  10  11
TORSDOF 7
ENDMDL
MODEL 6
REMARK VINA RESULT:      -4.9     12.123     14.481
REMARK  Name = 
REMARK  7 active torsions:
REMARK  status: ('A' for Active; 'I' for Inactive)
REMARK    1  A    between atoms: CA_2  and  CB_3
REMARK    2  A    between atoms: CA_2  and  C_7
REMARK    3  A    between atoms: CB_3  and  CG_4
REMARK    4  A    between atoms: N_9  and  CA_10
REMARK    5  A    between atoms: CA_10  and  CB_11
REMARK    6  A    between atoms: CA_10  and  C_17
REMARK    7  A    between atoms: CB_11  and  CG_12
REMARK                            x       y       z     vdW  Elec       q    Type
REMARK                         _______ _______ _______ _____ _____    ______ ____
ROOT
ATOM     10  CA  HIS A   2      19.355  66.171  13.584  0.00  0.00    +0.000 C 
ENDROOT
BRANCH  10   9
ATOM      7  C   ASP A   1      18.059  65.824  11.416  0.00  0.00    +0.000 C 
ATOM      8  O   ASP A   1      19.126  65.646  10.817  0.00  0.00    +0.000 OA
ATOM      9  N   HIS A   2      18.057  65.709  12.821  0.00  0.00    +0.000 NA
BRANCH   7   2
ATOM      1  N   ASP A   1      18.028  67.379   9.668  0.00  0.00    +0.000 NA
ATOM      2  CA  ASP A   1      17.037  66.908  10.798  0.00  0.00    +0.000 C 
BRANCH   2   3
ATOM      3  CB  ASP A   1      16.357  65.793   9.798  0.00  0.00    +0.000 C 
BRANCH   3   4
ATOM      4  CG  ASP A   1      15.302  66.542   9.101  0.00  0.00    +0.000 C 
ATOM      5  OD1 ASP A   1      14.768  66.190   8.022  0.00  0.00    +0.000 OA
ATOM      6  OD2 ASP A   1      14.657  67.577   9.782  0.00  0.00    +0.000 OA
ENDBRANCH   3   4
ENDBRANCH   2   3
ENDBRANCH   7   2
ENDBRANCH  10   9
BRANCH  10  17
ATOM     17  C   HIS A   2      19.299  64.931  14.610  0.00  0.00    +0.000 C 
ATOM     18  O   HIS A   2      19.212  65.145  15.806  0.00  0.00    +0.000 OA
ATOM     19  OXT HIS A   2      19.497  63.707  13.991  0.00  0.00    +0.000 OA
ENDBRANCH  10  17
BRANCH  10  11
ATOM     11  CB  HIS A   2      18.495  67.175  14.565  0.00  0.00    +0.000 C 
BRANCH  11  12
ATOM     12  CG  HIS A   2      19.088  68.512  14.423  0.00  0.00    +0.000 A 
ATOM     13  CD2 HIS A   2      19.248  69.111  13.178  0.00  0.00    +0.000 A 
ATOM     14  NE2 HIS A   2      19.858  70.286  13.342  0.00  0.00    +0.000 NA
ATOM     15  CE1 HIS A   2      20.225  70.375  14.623  0.00  0.00    +0.000 A 
ATOM     16  ND1 HIS A   2      19.766  69.286  15.274  0.00  0.00    +0.000 NA
ENDBRANCH  11  12
ENDBRANCH  10  11
TORSDOF 7
ENDMDL
MODEL 7
REMARK VINA RESULT:      -4.8     16.413     18.756
REMARK  Name = 
REMARK  7 active torsions:
REMARK  status: ('A' for Active; 'I' for Inactive)
REMARK    1  A    between atoms: CA_2  and  CB_3
REMARK    2  A    between atoms: CA_2  and  C_7
REMARK    3  A    between atoms: CB_3  and  CG_4
REMARK    4  A    between atoms: N_9  and  CA_10
REMARK    5  A    between atoms: CA_10  and  CB_11
REMARK    6  A    between atoms: CA_10  and  C_17
REMARK    7  A    between atoms: CB_11  and  CG_12
REMARK                            x       y       z     vdW  Elec       q    Type
REMARK                         _______ _______ _______ _____ _____    ______ ____
ROOT
ATOM     10  CA  HIS A   2      23.530  55.943  -4.213  0.00  0.00    +0.000 C 
ENDROOT
BRANCH  10   9
ATOM      7  C   ASP A   1      24.642  57.186  -6.141  0.00  0.00    +0.000 C 
ATOM      8  O   ASP A   1      25.689  56.566  -5.925  0.00  0.00    +0.000 OA
ATOM      9  N   HIS A   2      23.442  56.675  -5.605  0.00  0.00    +0.000 NA
BRANCH   7   2
ATOM      1  N   ASP A   1      23.193  59.020  -6.042  0.00  0.00    +0.000 NA
ATOM      2  CA  ASP A   1      24.740  58.794  -6.236  0.00  0.00    +0.000 C 
BRANCH   2   3
ATOM      3  CB  ASP A   1      25.009  58.937  -4.619  0.00  0.00    +0.000 C 
BRANCH   3   4
ATOM      4  CG  ASP A   1      26.074  59.945  -4.528  0.00  0.00    +0.000 C 
ATOM      5  OD1 ASP A   1      26.857  60.247  -5.460  0.00  0.00    +0.000 OA
ATOM      6  OD2 ASP A   1      26.078  60.815  -3.434  0.00  0.00    +0.000 OA
ENDBRANCH   3   4
ENDBRANCH   2   3
ENDBRANCH   7   2
ENDBRANCH  10   9
BRANCH  10  17
ATOM     17  C   HIS A   2      22.713  54.658  -4.739  0.00  0.00    +0.000 C 
ATOM     18  O   HIS A   2      22.342  54.617  -5.898  0.00  0.00    +0.000 OA
ATOM     19  OXT HIS A   2      22.401  53.764  -3.727  0.00  0.00    +0.000 OA
ENDBRANCH  10  17
BRANCH  10  11
ATOM     11  CB  HIS A   2      22.188  56.715  -3.654  0.00  0.00    +0.000 C 
BRANCH  11  12
ATOM     12  CG  HIS A   2      22.335  56.813  -2.195  0.00  0.00    +0.000 A 
ATOM     13  CD2 HIS A   2      22.482  58.039  -1.557  0.00  0.00    +0.000 A 
ATOM     14  NE2 HIS A   2      22.651  57.826  -0.250  0.00  0.00    +0.000 NA
ATOM     15  CE1 HIS A   2      22.770  56.508  -0.069  0.00  0.00    +0.000 A 
ATOM     16  ND1 HIS A   2      22.591  55.897  -1.258  0.00  0.00    +0.000 NA
ENDBRANCH  11  12
ENDBRANCH  10  11
TORSDOF 7
ENDMDL
MODEL 8
REMARK VINA RESULT:      -4.8     13.935     15.998
REMARK  Name = 
REMARK  7 active torsions:
REMARK  status: ('A' for Active; 'I' for Inactive)
REMARK    1  A    between atoms: CA_2  and  CB_3
REMARK    2  A    between atoms: CA_2  and  C_7
REMARK    3  A    between atoms: CB_3  and  CG_4
REMARK    4  A    between atoms: N_9  and  CA_10
REMARK    5  A    between atoms: CA_10  and  CB_11
REMARK    6  A    between atoms: CA_10  and  C_17
REMARK    7  A    between atoms: CB_11  and  CG_12
REMARK                            x       y       z     vdW  Elec       q    Type
REMARK                         _______ _______ _______ _____ _____    ______ ____
ROOT
ATOM     10  CA  HIS A   2      18.745  66.635  14.420  0.00  0.00    +0.000 C 
ENDROOT
BRANCH  10   9
ATOM      7  C   ASP A   1      20.327  68.547  15.005  0.00  0.00    +0.000 C 
ATOM      8  O   ASP A   1      19.576  68.874  15.930  0.00  0.00    +0.000 OA
ATOM      9  N   HIS A   2      20.195  67.252  14.465  0.00  0.00    +0.000 NA
BRANCH   7   2
ATOM      1  N   ASP A   1      19.352  69.783  13.275  0.00  0.00    +0.000 NA
ATOM      2  CA  ASP A   1      20.766  69.700  13.965  0.00  0.00    +0.000 C 
BRANCH   2   3
ATOM      3  CB  ASP A   1      20.369  70.896  15.023  0.00  0.00    +0.000 C 
BRANCH   3   4
ATOM      4  CG  ASP A   1      21.581  71.724  15.089  0.00  0.00    +0.000 C 
ATOM      5  OD1 ASP A   1      21.923  72.564  14.223  0.00  0.00    +0.000 OA
ATOM      6  OD2 ASP A   1      22.283  71.784  16.297  0.00  0.00    +0.000 OA
ENDBRANCH   3   4
ENDBRANCH   2   3
ENDBRANCH   7   2
ENDBRANCH  10   9
BRANCH  10  17
ATOM     17  C   HIS A   2      19.254  65.183  14.896  0.00  0.00    +0.000 C 
ATOM     18  O   HIS A   2      19.305  64.272  14.089  0.00  0.00    +0.000 OA
ATOM     19  OXT HIS A   2      19.460  65.103  16.264  0.00  0.00    +0.000 OA
ENDBRANCH  10  17
BRANCH  10  11
ATOM     11  CB  HIS A   2      18.878  66.287  12.817  0.00  0.00    +0.000 C 
BRANCH  11  12
ATOM     12  CG  HIS A   2      17.571  66.583  12.213  0.00  0.00    +0.000 A 
ATOM     13  CD2 HIS A   2      16.591  67.290  12.902  0.00  0.00    +0.000 A 
ATOM     14  NE2 HIS A   2      15.498  67.363  12.141  0.00  0.00    +0.000 NA
ATOM     15  CE1 HIS A   2      15.704  66.596  11.066  0.00  0.00    +0.000 A 
ATOM     16  ND1 HIS A   2      16.962  66.113  11.121  0.00  0.00    +0.000 NA
ENDBRANCH  11  12
ENDBRANCH  10  11
TORSDOF 7
ENDMDL
MODEL 9
REMARK VINA RESULT:      -4.7     19.388     22.908
REMARK  Name = 
REMARK  7 active torsions:
REMARK  status: ('A' for Active; 'I' for Inactive)
REMARK    1  A    between atoms: CA_2  and  CB_3
REMARK    2  A    between atoms: CA_2  and  C_7
REMARK    3  A    between atoms: CB_3  and  CG_4
REMARK    4  A    between atoms: N_9  and  CA_10
REMARK    5  A    between atoms: CA_10  and  CB_11
REMARK    6  A    between atoms: CA_10  and  C_17
REMARK    7  A    between atoms: CB_11  and  CG_12
REMARK                            x       y       z     vdW  Elec       q    Type
REMARK                         _______ _______ _______ _____ _____    ______ ____
ROOT
ATOM     10  CA  HIS A   2      27.671  55.265  -7.596  0.00  0.00    +0.000 C 
ENDROOT
BRANCH  10   9
ATOM      7  C   ASP A   1      25.291  54.958  -6.733  0.00  0.00    +0.000 C 
ATOM      8  O   ASP A   1      24.857  55.259  -7.849  0.00  0.00    +0.000 OA
ATOM      9  N   HIS A   2      26.643  54.569  -6.626  0.00  0.00    +0.000 NA
BRANCH   7   2
ATOM      1  N   ASP A   1      24.006  56.872  -6.337  0.00  0.00    +0.000 NA
ATOM      2  CA  ASP A   1      24.687  55.751  -5.465  0.00  0.00    +0.000 C 
BRANCH   2   3
ATOM      3  CB  ASP A   1      23.313  54.847  -5.472  0.00  0.00    +0.000 C 
BRANCH   3   4
ATOM      4  CG  ASP A   1      22.965  54.723  -4.049  0.00  0.00    +0.000 C 
ATOM      5  OD1 ASP A   1      22.231  53.828  -3.567  0.00  0.00    +0.000 OA
ATOM      6  OD2 ASP A   1      23.682  55.481  -3.119  0.00  0.00    +0.000 OA
ENDBRANCH   3   4
ENDBRANCH   2   3
ENDBRANCH   7   2
ENDBRANCH  10   9
BRANCH  10  17
ATOM     17  C   HIS A   2      28.783  54.121  -7.379  0.00  0.00    +0.000 C 
ATOM     18  O   HIS A   2      29.704  54.318  -6.607  0.00  0.00    +0.000 OA
ATOM     19  OXT HIS A   2      28.626  53.044  -8.237  0.00  0.00    +0.000 OA
ENDBRANCH  10  17
BRANCH  10  11
ATOM     11  CB  HIS A   2      28.252  56.224  -6.390  0.00  0.00    +0.000 C 
BRANCH  11  12
ATOM     12  CG  HIS A   2      28.211  57.604  -6.893  0.00  0.00    +0.000 A 
ATOM     13  CD2 HIS A   2      27.162  58.062  -7.684  0.00  0.00    +0.000 A 
ATOM     14  NE2 HIS A   2      27.412  59.323  -8.040  0.00  0.00    +0.000 NA
ATOM     15  CE1 HIS A   2      28.648  59.620  -7.631  0.00  0.00    +0.000 A 
ATOM     16  ND1 HIS A   2      29.136  58.566  -6.945  0.00  0.00    +0.000 NA
ENDBRANCH  11  12
ENDBRANCH  10  11
TORSDOF 7
ENDMDL
MODEL 10
REMARK VINA RESULT:      -4.7     27.891     30.192
REMARK  Name = 
REMARK  7 active torsions:
REMARK  status: ('A' for Active; 'I' for Inactive)
REMARK    1  A    between atoms: CA_2  and  CB_3
REMARK    2  A    between atoms: CA_2  and  C_7
REMARK    3  A    between atoms: CB_3  and  CG_4
REMARK    4  A    between atoms: N_9  and  CA_10
REMARK    5  A    between atoms: CA_10  and  CB_11
REMARK    6  A    between atoms: CA_10  and  C_17
REMARK    7  A    between atoms: CB_11  and  CG_12
REMARK                            x       y       z     vdW  Elec       q    Type
REMARK                         _______ _______ _______ _____ _____    ______ ____
ROOT
ATOM     10  CA  HIS A   2     -10.583  73.052  22.270  0.00  0.00    +0.000 C 
ENDROOT
BRANCH  10   9
ATOM      7  C   ASP A   1     -11.502  70.700  21.916  0.00  0.00    +0.000 C 
ATOM      8  O   ASP A   1     -11.461  70.878  20.693  0.00  0.00    +0.000 OA
ATOM      9  N   HIS A   2     -10.743  71.557  22.740  0.00  0.00    +0.000 NA
BRANCH   7   2
ATOM      1  N   ASP A   1     -12.637  68.669  22.160  0.00  0.00    +0.000 NA
ATOM      2  CA  ASP A   1     -12.894  70.176  22.540  0.00  0.00    +0.000 C 
BRANCH   2   3
ATOM      3  CB  ASP A   1     -12.222  69.963  24.026  0.00  0.00    +0.000 C 
BRANCH   3   4
ATOM      4  CG  ASP A   1     -13.373  69.684  24.897  0.00  0.00    +0.000 C 
ATOM      5  OD1 ASP A   1     -14.467  70.295  24.855  0.00  0.00    +0.000 OA
ATOM      6  OD2 ASP A   1     -13.368  68.509  25.653  0.00  0.00    +0.000 OA
ENDBRANCH   3   4
ENDBRANCH   2   3
ENDBRANCH   7   2
ENDBRANCH  10   9
BRANCH  10  17
ATOM     17  C   HIS A   2      -8.986  72.923  22.111  0.00  0.00    +0.000 C 
ATOM     18  O   HIS A   2      -8.436  73.427  21.148  0.00  0.00    +0.000 OA
ATOM     19  OXT HIS A   2      -8.411  72.100  23.067  0.00  0.00    +0.000 OA
ENDBRANCH  10  17
BRANCH  10  11
ATOM     11  CB  HIS A   2     -10.503  73.594  23.822  0.00  0.00    +0.000 C 
BRANCH  11  12
ATOM     12  CG  HIS A   2     -11.886  73.679  24.310  0.00  0.00    +0.000 A 
ATOM     13  CD2 HIS A   2     -12.849  74.433  23.648  0.00  0.00    +0.000 A 
ATOM     14  NE2 HIS A   2     -13.990  74.374  24.339  0.00  0.00    +0.000 NA
ATOM     15  CE1 HIS A   2     -13.734  73.740  25.486  0.00  0.00    +0.000 A 
ATOM     16  ND1 HIS A   2     -12.449  73.331  25.471  0.00  0.00    +0.000 NA
ENDBRANCH  11  12
ENDBRANCH  10  11
TORSDOF 7
ENDMDL
