MODEL 1
REMARK VINA RESULT:      -5.9      0.000      0.000
REMARK  Name = 
REMARK  7 active torsions:
REMARK  status: ('A' for Active; 'I' for Inactive)
REMARK    1  A    between atoms: CG1_2  and  CB_3
REMARK    2  A    between atoms: CB_3  and  CA_5
REMARK    3  A    between atoms: CA_5  and  N_6
REMARK    4  A    between atoms: CA_5  and  C_15
REMARK    5  A    between atoms: C_7  and  CA_9
REMARK    6  A    between atoms: CA_9  and  CB_11
REMARK    7  A    between atoms: CB_11  and  CG_12
REMARK                            x       y       z     vdW  Elec       q    Type
REMARK                         _______ _______ _______ _____ _____    ______ ____
ROOT
ATOM      6  N   ILE A   2      27.856  81.249 -24.984  0.00  0.00    +0.000 NA
ATOM      7  C   ASP A   1      27.451  80.611 -26.184  0.00  0.00    +0.000 C 
ATOM      8  O   ASP A   1      26.399  80.023 -26.189  0.00  0.00    +0.000 OA
ENDROOT
BRANCH   7   9
ATOM      9  CA  ASP A   1      28.206  81.025 -27.540  0.00  0.00    +0.000 C 
ATOM     10  N   ASP A   1      29.495  81.496 -26.763  0.00  0.00    +0.000 NA
BRANCH   9  11
ATOM     11  CB  ASP A   1      28.866  79.540 -27.817  0.00  0.00    +0.000 C 
BRANCH  11  12
ATOM     12  CG  ASP A   1      28.420  79.190 -29.206  0.00  0.00    +0.000 C 
ATOM     13  OD1 ASP A   1      29.086  78.247 -29.732  0.00  0.00    +0.000 OA
ATOM     14  OD2 ASP A   1      27.094  79.293 -29.598  0.00  0.00    +0.000 OA
ENDBRANCH  11  12
ENDBRANCH   9  11
ENDBRANCH   7   9
BRANCH   6   5
ATOM      5  CA  ILE A   2      26.693  82.031 -24.269  0.00  0.00    +0.000 C 
BRANCH   5  15
ATOM     15  C   ILE A   2      27.468  83.430 -24.242  0.00  0.00    +0.000 C 
ATOM     16  O   ILE A   2      28.648  83.511 -24.504  0.00  0.00    +0.000 OA
ATOM     17  OXT ILE A   2      26.575  84.410 -24.646  0.00  0.00    +0.000 OA
ENDBRANCH   5  15
BRANCH   5   3
ATOM      3  CB  ILE A   2      27.212  81.632 -22.696  0.00  0.00    +0.000 C 
ATOM      4  CG2 ILE A   2      25.960  82.380 -21.992  0.00  0.00    +0.000 C 
BRANCH   3   2
ATOM      1  CD1 ILE A   2      26.919  79.514 -21.970  0.00  0.00    +0.000 C 
ATOM      2  CG1 ILE A   2      26.409  80.229 -22.726  0.00  0.00    +0.000 C 
ENDBRANCH   3   2
ENDBRANCH   5   3
ENDBRANCH   6   5
TORSDOF 7
ENDMDL
MODEL 2
REMARK VINA RESULT:      -5.8      1.901      2.342
REMARK  Name = 
REMARK  7 active torsions:
REMARK  status: ('A' for Active; 'I' for Inactive)
REMARK    1  A    between atoms: CG1_2  and  CB_3
REMARK    2  A    between atoms: CB_3  and  CA_5
REMARK    3  A    between atoms: CA_5  and  N_6
REMARK    4  A    between atoms: CA_5  and  C_15
REMARK    5  A    between atoms: C_7  and  CA_9
REMARK    6  A    between atoms: CA_9  and  CB_11
REMARK    7  A    between atoms: CB_11  and  CG_12
REMARK                            x       y       z     vdW  Elec       q    Type
REMARK                         _______ _______ _______ _____ _____    ______ ____
ROOT
ATOM      6  N   ILE A   2      27.554  81.194 -25.037  0.00  0.00    +0.000 NA
ATOM      7  C   ASP A   1      26.908  80.538 -26.116  0.00  0.00    +0.000 C 
ATOM      8  O   ASP A   1      25.854  79.992 -25.903  0.00  0.00    +0.000 OA
ENDROOT
BRANCH   7   9
ATOM      9  CA  ASP A   1      27.405  80.884 -27.604  0.00  0.00    +0.000 C 
ATOM     10  N   ASP A   1      26.266  80.016 -28.264  0.00  0.00    +0.000 NA
BRANCH   9  11
ATOM     11  CB  ASP A   1      26.506  82.256 -27.760  0.00  0.00    +0.000 C 
BRANCH  11  12
ATOM     12  CG  ASP A   1      27.427  83.229 -28.435  0.00  0.00    +0.000 C 
ATOM     13  OD1 ASP A   1      28.639  83.115 -28.077  0.00  0.00    +0.000 OA
ATOM     14  OD2 ASP A   1      27.214  83.657 -29.736  0.00  0.00    +0.000 OA
ENDBRANCH  11  12
ENDBRANCH   9  11
ENDBRANCH   7   9
BRANCH   6   5
ATOM      5  CA  ILE A   2      26.573  82.041 -24.144  0.00  0.00    +0.000 C 
BRANCH   5  15
ATOM     15  C   ILE A   2      27.420  83.393 -24.261  0.00  0.00    +0.000 C 
ATOM     16  O   ILE A   2      28.522  83.416 -24.764  0.00  0.00    +0.000 OA
ATOM     17  OXT ILE A   2      26.523  84.432 -24.455  0.00  0.00    +0.000 OA
ENDBRANCH   5  15
BRANCH   5   3
ATOM      3  CB  ILE A   2      27.326  81.613 -22.677  0.00  0.00    +0.000 C 
ATOM      4  CG2 ILE A   2      26.242  82.411 -21.779  0.00  0.00    +0.000 C 
BRANCH   3   2
ATOM      1  CD1 ILE A   2      27.048  79.518 -21.879  0.00  0.00    +0.000 C 
ATOM      2  CG1 ILE A   2      26.469  80.246 -22.570  0.00  0.00    +0.000 C 
ENDBRANCH   3   2
ENDBRANCH   5   3
ENDBRANCH   6   5
TORSDOF 7
ENDMDL
MODEL 3
REMARK VINA RESULT:      -5.3      2.175      5.726
REMARK  Name = 
REMARK  7 active torsions:
REMARK  status: ('A' for Active; 'I' for Inactive)
REMARK    1  A    between atoms: CG1_2  and  CB_3
REMARK    2  A    between atoms: CB_3  and  CA_5
REMARK    3  A    between atoms: CA_5  and  N_6
REMARK    4  A    between atoms: CA_5  and  C_15
REMARK    5  A    between atoms: C_7  and  CA_9
REMARK    6  A    between atoms: CA_9  and  CB_11
REMARK    7  A    between atoms: CB_11  and  CG_12
REMARK                            x       y       z     vdW  Elec       q    Type
REMARK                         _______ _______ _______ _____ _____    ______ ____
ROOT
ATOM      6  N   ILE A   2      27.851  82.569 -25.700  0.00  0.00    +0.000 NA
ATOM      7  C   ASP A   1      27.280  83.316 -24.638  0.00  0.00    +0.000 C 
ATOM      8  O   ASP A   1      26.356  84.049 -24.889  0.00  0.00    +0.000 OA
ENDROOT
BRANCH   7   9
ATOM      9  CA  ASP A   1      27.627  82.862 -23.137  0.00  0.00    +0.000 C 
ATOM     10  N   ASP A   1      28.005  84.332 -22.704  0.00  0.00    +0.000 NA
BRANCH   9  11
ATOM     11  CB  ASP A   1      26.095  83.042 -22.555  0.00  0.00    +0.000 C 
BRANCH  11  12
ATOM     12  CG  ASP A   1      25.493  81.672 -22.668  0.00  0.00    +0.000 C 
ATOM     13  OD1 ASP A   1      24.435  81.637 -23.367  0.00  0.00    +0.000 OA
ATOM     14  OD2 ASP A   1      26.275  80.528 -22.687  0.00  0.00    +0.000 OA
ENDBRANCH  11  12
ENDBRANCH   9  11
ENDBRANCH   7   9
BRANCH   6   5
ATOM      5  CA  ILE A   2      26.780  81.930 -26.660  0.00  0.00    +0.000 C 
BRANCH   5  15
ATOM     15  C   ILE A   2      27.057  80.426 -26.187  0.00  0.00    +0.000 C 
ATOM     16  O   ILE A   2      28.050  80.126 -25.562  0.00  0.00    +0.000 OA
ATOM     17  OXT ILE A   2      25.831  79.844 -25.907  0.00  0.00    +0.000 OA
ENDBRANCH   5  15
BRANCH   5   3
ATOM      3  CB  ILE A   2      27.851  81.788 -27.978  0.00  0.00    +0.000 C 
ATOM      4  CG2 ILE A   2      26.712  81.193 -28.961  0.00  0.00    +0.000 C 
BRANCH   3   2
ATOM      1  CD1 ILE A   2      28.330  83.580 -29.265  0.00  0.00    +0.000 C 
ATOM      2  CG1 ILE A   2      27.542  83.298 -28.465  0.00  0.00    +0.000 C 
ENDBRANCH   3   2
ENDBRANCH   5   3
ENDBRANCH   6   5
TORSDOF 7
ENDMDL
MODEL 4
REMARK VINA RESULT:      -5.1     29.213     31.213
REMARK  Name = 
REMARK  7 active torsions:
REMARK  status: ('A' for Active; 'I' for Inactive)
REMARK    1  A    between atoms: CG1_2  and  CB_3
REMARK    2  A    between atoms: CB_3  and  CA_5
REMARK    3  A    between atoms: CA_5  and  N_6
REMARK    4  A    between atoms: CA_5  and  C_15
REMARK    5  A    between atoms: C_7  and  CA_9
REMARK    6  A    between atoms: CA_9  and  CB_11
REMARK    7  A    between atoms: CB_11  and  CG_12
REMARK                            x       y       z     vdW  Elec       q    Type
REMARK                         _______ _______ _______ _____ _____    ______ ____
ROOT
ATOM      6  N   ILE A   2      24.207  56.965  -6.315  0.00  0.00    +0.000 NA
ATOM      7  C   ASP A   1      25.567  57.306  -6.529  0.00  0.00    +0.000 C 
ATOM      8  O   ASP A   1      26.078  58.105  -5.785  0.00  0.00    +0.000 OA
ENDROOT
BRANCH   7   9
ATOM      9  CA  ASP A   1      26.436  56.347  -7.480  0.00  0.00    +0.000 C 
ATOM     10  N   ASP A   1      25.271  56.220  -8.536  0.00  0.00    +0.000 NA
BRANCH   9  11
ATOM     11  CB  ASP A   1      27.138  57.565  -8.341  0.00  0.00    +0.000 C 
BRANCH  11  12
ATOM     12  CG  ASP A   1      28.296  56.910  -9.032  0.00  0.00    +0.000 C 
ATOM     13  OD1 ASP A   1      28.625  55.793  -8.529  0.00  0.00    +0.000 OA
ATOM     14  OD2 ASP A   1      28.512  57.052 -10.394  0.00  0.00    +0.000 OA
ENDBRANCH  11  12
ENDBRANCH   9  11
ENDBRANCH   7   9
BRANCH   6   5
ATOM      5  CA  ILE A   2      23.854  56.732  -4.799  0.00  0.00    +0.000 C 
BRANCH   5  15
ATOM     15  C   ILE A   2      23.541  55.172  -4.973  0.00  0.00    +0.000 C 
ATOM     16  O   ILE A   2      23.443  54.658  -6.066  0.00  0.00    +0.000 OA
ATOM     17  OXT ILE A   2      24.146  54.504  -3.920  0.00  0.00    +0.000 OA
ENDBRANCH   5  15
BRANCH   5   3
ATOM      3  CB  ILE A   2      22.213  57.153  -4.979  0.00  0.00    +0.000 C 
ATOM      4  CG2 ILE A   2      21.936  57.133  -3.384  0.00  0.00    +0.000 C 
BRANCH   3   2
ATOM      1  CD1 ILE A   2      21.597  59.310  -5.240  0.00  0.00    +0.000 C 
ATOM      2  CG1 ILE A   2      22.556  58.732  -4.941  0.00  0.00    +0.000 C 
ENDBRANCH   3   2
ENDBRANCH   5   3
ENDBRANCH   6   5
TORSDOF 7
ENDMDL
MODEL 5
REMARK VINA RESULT:      -5.1     37.967     39.605
REMARK  Name = 
REMARK  7 active torsions:
REMARK  status: ('A' for Active; 'I' for Inactive)
REMARK    1  A    between atoms: CG1_2  and  CB_3
REMARK    2  A    between atoms: CB_3  and  CA_5
REMARK    3  A    between atoms: CA_5  and  N_6
REMARK    4  A    between atoms: CA_5  and  C_15
REMARK    5  A    between atoms: C_7  and  CA_9
REMARK    6  A    between atoms: CA_9  and  CB_11
REMARK    7  A    between atoms: CB_11  and  CG_12
REMARK                            x       y       z     vdW  Elec       q    Type
REMARK                         _______ _______ _______ _____ _____    ______ ____
ROOT
ATOM      6  N   ILE A   2      16.195  68.071  10.193  0.00  0.00    +0.000 NA
ATOM      7  C   ASP A   1      16.220  67.275   9.019  0.00  0.00    +0.000 C 
ATOM      8  O   ASP A   1      17.258  67.187   8.413  0.00  0.00    +0.000 OA
ENDROOT
BRANCH   7   9
ATOM      9  CA  ASP A   1      15.005  66.251   8.786  0.00  0.00    +0.000 C 
ATOM     10  N   ASP A   1      13.928  67.317   9.225  0.00  0.00    +0.000 NA
BRANCH   9  11
ATOM     11  CB  ASP A   1      14.783  66.623   7.196  0.00  0.00    +0.000 C 
BRANCH  11  12
ATOM     12  CG  ASP A   1      15.028  65.330   6.475  0.00  0.00    +0.000 C 
ATOM     13  OD1 ASP A   1      14.518  65.290   5.314  0.00  0.00    +0.000 OA
ATOM     14  OD2 ASP A   1      16.192  64.600   6.655  0.00  0.00    +0.000 OA
ENDBRANCH  11  12
ENDBRANCH   9  11
ENDBRANCH   7   9
BRANCH   6   5
ATOM      5  CA  ILE A   2      17.450  67.859  11.118  0.00  0.00    +0.000 C 
BRANCH   5  15
ATOM     15  C   ILE A   2      16.610  67.284  12.354  0.00  0.00    +0.000 C 
ATOM     16  O   ILE A   2      15.403  67.369  12.399  0.00  0.00    +0.000 OA
ATOM     17  OXT ILE A   2      17.268  66.155  12.816  0.00  0.00    +0.000 OA
ENDBRANCH   5  15
BRANCH   5   3
ATOM      3  CB  ILE A   2      17.422  69.443  11.745  0.00  0.00    +0.000 C 
ATOM      4  CG2 ILE A   2      18.854  69.277  12.482  0.00  0.00    +0.000 C 
BRANCH   3   2
ATOM      1  CD1 ILE A   2      17.861  71.165  10.351  0.00  0.00    +0.000 C 
ATOM      2  CG1 ILE A   2      18.129  70.040  10.419  0.00  0.00    +0.000 C 
ENDBRANCH   3   2
ENDBRANCH   5   3
ENDBRANCH   6   5
TORSDOF 7
ENDMDL
MODEL 6
REMARK VINA RESULT:      -5.0      2.341      3.289
REMARK  Name = 
REMARK  7 active torsions:
REMARK  status: ('A' for Active; 'I' for Inactive)
REMARK    1  A    between atoms: CG1_2  and  CB_3
REMARK    2  A    between atoms: CB_3  and  CA_5
REMARK    3  A    between atoms: CA_5  and  N_6
REMARK    4  A    between atoms: CA_5  and  C_15
REMARK    5  A    between atoms: C_7  and  CA_9
REMARK    6  A    between atoms: CA_9  and  CB_11
REMARK    7  A    between atoms: CB_11  and  CG_12
REMARK                            x       y       z     vdW  Elec       q    Type
REMARK                         _______ _______ _______ _____ _____    ______ ____
ROOT
ATOM      6  N   ILE A   2      26.895  82.882 -26.070  0.00  0.00    +0.000 NA
ATOM      7  C   ASP A   1      27.303  82.662 -27.411  0.00  0.00    +0.000 C 
ATOM      8  O   ASP A   1      28.402  82.204 -27.604  0.00  0.00    +0.000 OA
ENDROOT
BRANCH   7   9
ATOM      9  CA  ASP A   1      26.167  82.668 -28.546  0.00  0.00    +0.000 C 
ATOM     10  N   ASP A   1      27.025  83.585 -29.500  0.00  0.00    +0.000 NA
BRANCH   9  11
ATOM     11  CB  ASP A   1      26.698  81.308 -29.311  0.00  0.00    +0.000 C 
BRANCH  11  12
ATOM     12  CG  ASP A   1      25.441  80.584 -29.694  0.00  0.00    +0.000 C 
ATOM     13  OD1 ASP A   1      25.412  79.375 -29.310  0.00  0.00    +0.000 OA
ATOM     14  OD2 ASP A   1      24.217  81.230 -29.767  0.00  0.00    +0.000 OA
ENDBRANCH  11  12
ENDBRANCH   9  11
ENDBRANCH   7   9
BRANCH   6   5
ATOM      5  CA  ILE A   2      27.264  81.697 -25.103  0.00  0.00    +0.000 C 
BRANCH   5  15
ATOM     15  C   ILE A   2      25.816  81.018 -25.166  0.00  0.00    +0.000 C 
ATOM     16  O   ILE A   2      24.805  81.678 -25.268  0.00  0.00    +0.000 OA
ATOM     17  OXT ILE A   2      25.952  79.807 -25.827  0.00  0.00    +0.000 OA
ENDBRANCH   5  15
BRANCH   5   3
ATOM      3  CB  ILE A   2      26.876  82.557 -23.684  0.00  0.00    +0.000 C 
ATOM      4  CG2 ILE A   2      27.254  81.317 -22.716  0.00  0.00    +0.000 C 
BRANCH   3   2
ATOM      1  CD1 ILE A   2      28.578  83.388 -22.454  0.00  0.00    +0.000 C 
ATOM      2  CG1 ILE A   2      28.374  83.156 -23.570  0.00  0.00    +0.000 C 
ENDBRANCH   3   2
ENDBRANCH   5   3
ENDBRANCH   6   5
TORSDOF 7
ENDMDL
MODEL 7
REMARK VINA RESULT:      -5.0     29.249     31.633
REMARK  Name = 
REMARK  7 active torsions:
REMARK  status: ('A' for Active; 'I' for Inactive)
REMARK    1  A    between atoms: CG1_2  and  CB_3
REMARK    2  A    between atoms: CB_3  and  CA_5
REMARK    3  A    between atoms: CA_5  and  N_6
REMARK    4  A    between atoms: CA_5  and  C_15
REMARK    5  A    between atoms: C_7  and  CA_9
REMARK    6  A    between atoms: CA_9  and  CB_11
REMARK    7  A    between atoms: CB_11  and  CG_12
REMARK                            x       y       z     vdW  Elec       q    Type
REMARK                         _______ _______ _______ _____ _____    ______ ____
ROOT
ATOM      6  N   ILE A   2      25.517  57.601  -5.641  0.00  0.00    +0.000 NA
ATOM      7  C   ASP A   1      24.269  58.139  -5.236  0.00  0.00    +0.000 C 
ATOM      8  O   ASP A   1      23.721  58.922  -5.970  0.00  0.00    +0.000 OA
ENDROOT
BRANCH   7   9
ATOM      9  CA  ASP A   1      23.491  57.400  -4.040  0.00  0.00    +0.000 C 
ATOM     10  N   ASP A   1      22.587  58.661  -3.754  0.00  0.00    +0.000 NA
BRANCH   9  11
ATOM     11  CB  ASP A   1      22.326  56.731  -4.994  0.00  0.00    +0.000 C 
BRANCH  11  12
ATOM     12  CG  ASP A   1      22.409  55.262  -4.706  0.00  0.00    +0.000 C 
ATOM     13  OD1 ASP A   1      22.316  54.533  -5.740  0.00  0.00    +0.000 OA
ATOM     14  OD2 ASP A   1      23.189  54.760  -3.675  0.00  0.00    +0.000 OA
ENDBRANCH  11  12
ENDBRANCH   9  11
ENDBRANCH   7   9
BRANCH   6   5
ATOM      5  CA  ILE A   2      25.551  57.176  -7.156  0.00  0.00    +0.000 C 
BRANCH   5  15
ATOM     15  C   ILE A   2      25.627  55.606  -6.853  0.00  0.00    +0.000 C 
ATOM     16  O   ILE A   2      25.797  55.180  -5.732  0.00  0.00    +0.000 OA
ATOM     17  OXT ILE A   2      24.776  54.968  -7.741  0.00  0.00    +0.000 OA
ENDBRANCH   5  15
BRANCH   5   3
ATOM      3  CB  ILE A   2      27.244  57.304  -7.292  0.00  0.00    +0.000 C 
ATOM      4  CG2 ILE A   2      27.230  57.039  -8.889  0.00  0.00    +0.000 C 
BRANCH   3   2
ATOM      1  CD1 ILE A   2      28.246  59.312  -7.549  0.00  0.00    +0.000 C 
ATOM      2  CG1 ILE A   2      27.162  58.903  -7.515  0.00  0.00    +0.000 C 
ENDBRANCH   3   2
ENDBRANCH   5   3
ENDBRANCH   6   5
TORSDOF 7
ENDMDL
MODEL 8
REMARK VINA RESULT:      -4.8      1.987      3.004
REMARK  Name = 
REMARK  7 active torsions:
REMARK  status: ('A' for Active; 'I' for Inactive)
REMARK    1  A    between atoms: CG1_2  and  CB_3
REMARK    2  A    between atoms: CB_3  and  CA_5
REMARK    3  A    between atoms: CA_5  and  N_6
REMARK    4  A    between atoms: CA_5  and  C_15
REMARK    5  A    between atoms: C_7  and  CA_9
REMARK    6  A    between atoms: CA_9  and  CB_11
REMARK    7  A    between atoms: CB_11  and  CG_12
REMARK                            x       y       z     vdW  Elec       q    Type
REMARK                         _______ _______ _______ _____ _____    ______ ____
ROOT
ATOM      6  N   ILE A   2      27.361  83.147 -25.552  0.00  0.00    +0.000 NA
ATOM      7  C   ASP A   1      28.747  83.114 -25.854  0.00  0.00    +0.000 C 
ATOM      8  O   ASP A   1      29.514  82.812 -24.974  0.00  0.00    +0.000 OA
ENDROOT
BRANCH   7   9
ATOM      9  CA  ASP A   1      29.172  83.100 -27.403  0.00  0.00    +0.000 C 
ATOM     10  N   ASP A   1      30.710  83.126 -27.054  0.00  0.00    +0.000 NA
BRANCH   9  11
ATOM     11  CB  ASP A   1      29.193  81.458 -27.549  0.00  0.00    +0.000 C 
BRANCH  11  12
ATOM     12  CG  ASP A   1      28.795  81.209 -28.974  0.00  0.00    +0.000 C 
ATOM     13  OD1 ASP A   1      27.643  81.652 -29.266  0.00  0.00    +0.000 OA
ATOM     14  OD2 ASP A   1      29.724  81.199 -30.003  0.00  0.00    +0.000 OA
ENDBRANCH  11  12
ENDBRANCH   9  11
ENDBRANCH   7   9
BRANCH   6   5
ATOM      5  CA  ILE A   2      26.882  81.922 -24.689  0.00  0.00    +0.000 C 
BRANCH   5  15
ATOM     15  C   ILE A   2      25.902  81.341 -25.814  0.00  0.00    +0.000 C 
ATOM     16  O   ILE A   2      25.530  82.017 -26.747  0.00  0.00    +0.000 OA
ATOM     17  OXT ILE A   2      26.205  79.997 -25.977  0.00  0.00    +0.000 OA
ENDBRANCH   5  15
BRANCH   5   3
ATOM      3  CB  ILE A   2      25.618  82.778 -23.932  0.00  0.00    +0.000 C 
ATOM      4  CG2 ILE A   2      25.183  81.516 -23.017  0.00  0.00    +0.000 C 
BRANCH   3   2
ATOM      1  CD1 ILE A   2      26.051  83.241 -21.764  0.00  0.00    +0.000 C 
ATOM      2  CG1 ILE A   2      26.607  83.328 -22.777  0.00  0.00    +0.000 C 
ENDBRANCH   3   2
ENDBRANCH   5   3
ENDBRANCH   6   5
TORSDOF 7
ENDMDL
MODEL 9
REMARK VINA RESULT:      -4.7     24.735     26.536
REMARK  Name = 
REMARK  7 active torsions:
REMARK  status: ('A' for Active; 'I' for Inactive)
REMARK    1  A    between atoms: CG1_2  and  CB_3
REMARK    2  A    between atoms: CB_3  and  CA_5
REMARK    3  A    between atoms: CA_5  and  N_6
REMARK    4  A    between atoms: CA_5  and  C_15
REMARK    5  A    between atoms: C_7  and  CA_9
REMARK    6  A    between atoms: CA_9  and  CB_11
REMARK    7  A    between atoms: CB_11  and  CG_12
REMARK                            x       y       z     vdW  Elec       q    Type
REMARK                         _______ _______ _______ _____ _____    ______ ____
ROOT
ATOM      6  N   ILE A   2      15.714  60.091 -17.387  0.00  0.00    +0.000 NA
ATOM      7  C   ASP A   1      15.231  60.114 -16.054  0.00  0.00    +0.000 C 
ATOM      8  O   ASP A   1      14.617  59.157 -15.654  0.00  0.00    +0.000 OA
ENDROOT
BRANCH   7   9
ATOM      9  CA  ASP A   1      15.847  61.212 -15.056  0.00  0.00    +0.000 C 
ATOM     10  N   ASP A   1      15.728  62.360 -16.132  0.00  0.00    +0.000 NA
BRANCH   9  11
ATOM     11  CB  ASP A   1      14.407  61.641 -14.380  0.00  0.00    +0.000 C 
BRANCH  11  12
ATOM     12  CG  ASP A   1      14.614  61.441 -12.908  0.00  0.00    +0.000 C 
ATOM     13  OD1 ASP A   1      13.749  60.685 -12.370  0.00  0.00    +0.000 OA
ATOM     14  OD2 ASP A   1      15.880  61.417 -12.343  0.00  0.00    +0.000 OA
ENDBRANCH  11  12
ENDBRANCH   9  11
ENDBRANCH   7   9
BRANCH   6   5
ATOM      5  CA  ILE A   2      16.355  58.714 -17.795  0.00  0.00    +0.000 C 
BRANCH   5  15
ATOM     15  C   ILE A   2      17.796  59.329 -18.123  0.00  0.00    +0.000 C 
ATOM     16  O   ILE A   2      18.020  60.516 -18.029  0.00  0.00    +0.000 OA
ATOM     17  OXT ILE A   2      18.746  58.389 -17.752  0.00  0.00    +0.000 OA
ENDBRANCH   5  15
BRANCH   5   3
ATOM      3  CB  ILE A   2      15.865  58.815 -19.424  0.00  0.00    +0.000 C 
ATOM      4  CG2 ILE A   2      16.314  57.295 -19.752  0.00  0.00    +0.000 C 
BRANCH   3   2
ATOM      1  CD1 ILE A   2      13.719  58.432 -20.018  0.00  0.00    +0.000 C 
ATOM      2  CG1 ILE A   2      14.364  58.336 -19.060  0.00  0.00    +0.000 C 
ENDBRANCH   3   2
ENDBRANCH   5   3
ENDBRANCH   6   5
TORSDOF 7
ENDMDL
MODEL 10
REMARK VINA RESULT:      -4.7     30.872     32.691
REMARK  Name = 
REMARK  7 active torsions:
REMARK  status: ('A' for Active; 'I' for Inactive)
REMARK    1  A    between atoms: CG1_2  and  CB_3
REMARK    2  A    between atoms: CB_3  and  CA_5
REMARK    3  A    between atoms: CA_5  and  N_6
REMARK    4  A    between atoms: CA_5  and  C_15
REMARK    5  A    between atoms: C_7  and  CA_9
REMARK    6  A    between atoms: CA_9  and  CB_11
REMARK    7  A    between atoms: CB_11  and  CG_12
REMARK                            x       y       z     vdW  Elec       q    Type
REMARK                         _______ _______ _______ _____ _____    ______ ____
ROOT
ATOM      6  N   ILE A   2      25.111  54.558  -6.197  0.00  0.00    +0.000 NA
ATOM      7  C   ASP A   1      24.408  54.644  -4.968  0.00  0.00    +0.000 C 
ATOM      8  O   ASP A   1      25.047  54.641  -3.945  0.00  0.00    +0.000 OA
ENDROOT
BRANCH   7   9
ATOM      9  CA  ASP A   1      22.876  55.123  -5.017  0.00  0.00    +0.000 C 
ATOM     10  N   ASP A   1      22.481  54.224  -3.783  0.00  0.00    +0.000 NA
BRANCH   9  11
ATOM     11  CB  ASP A   1      23.086  56.437  -4.044  0.00  0.00    +0.000 C 
BRANCH  11  12
ATOM     12  CG  ASP A   1      23.217  57.588  -4.997  0.00  0.00    +0.000 C 
ATOM     13  OD1 ASP A   1      22.533  57.452  -6.057  0.00  0.00    +0.000 OA
ATOM     14  OD2 ASP A   1      23.405  58.888  -4.555  0.00  0.00    +0.000 OA
ENDBRANCH  11  12
ENDBRANCH   9  11
ENDBRANCH   7   9
BRANCH   6   5
ATOM      5  CA  ILE A   2      26.392  55.470  -6.249  0.00  0.00    +0.000 C 
BRANCH   5  15
ATOM     15  C   ILE A   2      25.874  56.358  -7.476  0.00  0.00    +0.000 C 
ATOM     16  O   ILE A   2      24.957  55.999  -8.181  0.00  0.00    +0.000 OA
ATOM     17  OXT ILE A   2      26.027  57.689  -7.121  0.00  0.00    +0.000 OA
ENDBRANCH   5  15
BRANCH   5   3
ATOM      3  CB  ILE A   2      27.257  54.425  -7.280  0.00  0.00    +0.000 C 
ATOM      4  CG2 ILE A   2      28.598  55.330  -7.228  0.00  0.00    +0.000 C 
BRANCH   3   2
ATOM      1  CD1 ILE A   2      28.648  52.874  -6.407  0.00  0.00    +0.000 C 
ATOM      2  CG1 ILE A   2      27.766  53.527  -6.035  0.00  0.00    +0.000 C 
ENDBRANCH   3   2
ENDBRANCH   5   3
ENDBRANCH   6   5
TORSDOF 7
ENDMDL
