MODEL 1
REMARK VINA RESULT:      -4.9      0.000      0.000
REMARK  Name = 
REMARK  7 active torsions:
REMARK  status: ('A' for Active; 'I' for Inactive)
REMARK    1  A    between atoms: CG_2  and  CB_4
REMARK    2  A    between atoms: CB_4  and  CA_5
REMARK    3  A    between atoms: CA_5  and  N_6
REMARK    4  A    between atoms: CA_5  and  C_15
REMARK    5  A    between atoms: C_7  and  CA_9
REMARK    6  A    between atoms: CA_9  and  CB_11
REMARK    7  A    between atoms: CB_11  and  CG_12
REMARK                            x       y       z     vdW  Elec       q    Type
REMARK                         _______ _______ _______ _____ _____    ______ ____
ROOT
ATOM      6  N   LEU A   2      23.861  56.497  -5.481  0.00  0.00    +0.000 NA
ATOM      7  C   ASP A   1      24.086  57.595  -4.627  0.00  0.00    +0.000 C 
ATOM      8  O   ASP A   1      25.116  57.520  -3.911  0.00  0.00    +0.000 OA
ENDROOT
BRANCH   7   9
ATOM      9  CA  ASP A   1      24.121  58.891  -5.648  0.00  0.00    +0.000 C 
ATOM     10  N   ASP A   1      23.128  58.201  -6.704  0.00  0.00    +0.000 NA
BRANCH   9  11
ATOM     11  CB  ASP A   1      25.457  58.288  -6.453  0.00  0.00    +0.000 C 
BRANCH  11  12
ATOM     12  CG  ASP A   1      26.236  59.548  -6.615  0.00  0.00    +0.000 C 
ATOM     13  OD1 ASP A   1      26.825  59.727  -7.717  0.00  0.00    +0.000 OA
ATOM     14  OD2 ASP A   1      26.433  60.382  -5.507  0.00  0.00    +0.000 OA
ENDBRANCH  11  12
ENDBRANCH   9  11
ENDBRANCH   7   9
BRANCH   6   5
ATOM      5  CA  LEU A   2      24.353  55.054  -4.988  0.00  0.00    +0.000 C 
BRANCH   5  15
ATOM     15  C   LEU A   2      22.822  54.460  -5.007  0.00  0.00    +0.000 C 
ATOM     16  O   LEU A   2      22.323  54.192  -3.919  0.00  0.00    +0.000 OA
ATOM     17  OXT LEU A   2      22.231  54.457  -6.242  0.00  0.00    +0.000 OA
ENDBRANCH   5  15
BRANCH   5   4
ATOM      4  CB  LEU A   2      24.657  54.473  -6.533  0.00  0.00    +0.000 C 
BRANCH   4   2
ATOM      1  CD1 LEU A   2      26.820  54.768  -7.211  0.00  0.00    +0.000 C 
ATOM      2  CG  LEU A   2      26.094  54.014  -6.479  0.00  0.00    +0.000 C 
ATOM      3  CD2 LEU A   2      26.582  53.937  -5.069  0.00  0.00    +0.000 C 
ENDBRANCH   4   2
ENDBRANCH   5   4
ENDBRANCH   6   5
TORSDOF 7
ENDMDL
MODEL 2
REMARK VINA RESULT:      -4.7     18.110     20.012
REMARK  Name = 
REMARK  7 active torsions:
REMARK  status: ('A' for Active; 'I' for Inactive)
REMARK    1  A    between atoms: CG_2  and  CB_4
REMARK    2  A    between atoms: CB_4  and  CA_5
REMARK    3  A    between atoms: CA_5  and  N_6
REMARK    4  A    between atoms: CA_5  and  C_15
REMARK    5  A    between atoms: C_7  and  CA_9
REMARK    6  A    between atoms: CA_9  and  CB_11
REMARK    7  A    between atoms: CB_11  and  CG_12
REMARK                            x       y       z     vdW  Elec       q    Type
REMARK                         _______ _______ _______ _____ _____    ______ ____
ROOT
ATOM      6  N   LEU A   2       9.839  57.468   7.135  0.00  0.00    +0.000 NA
ATOM      7  C   ASP A   1       8.811  57.504   8.100  0.00  0.00    +0.000 C 
ATOM      8  O   ASP A   1       9.050  58.202   9.117  0.00  0.00    +0.000 OA
ENDROOT
BRANCH   7   9
ATOM      9  CA  ASP A   1       7.497  58.043   7.259  0.00  0.00    +0.000 C 
ATOM     10  N   ASP A   1       7.861  57.176   5.958  0.00  0.00    +0.000 NA
BRANCH   9  11
ATOM     11  CB  ASP A   1       8.348  59.356   6.667  0.00  0.00    +0.000 C 
BRANCH  11  12
ATOM     12  CG  ASP A   1       7.345  60.430   6.916  0.00  0.00    +0.000 C 
ATOM     13  OD1 ASP A   1       7.077  60.705   8.119  0.00  0.00    +0.000 OA
ATOM     14  OD2 ASP A   1       6.621  60.957   5.840  0.00  0.00    +0.000 OA
ENDBRANCH  11  12
ENDBRANCH   9  11
ENDBRANCH   7   9
BRANCH   6   5
ATOM      5  CA  LEU A   2      11.351  57.587   7.651  0.00  0.00    +0.000 C 
BRANCH   5  15
ATOM     15  C   LEU A   2      11.447  55.970   7.925  0.00  0.00    +0.000 C 
ATOM     16  O   LEU A   2      11.589  55.619   9.091  0.00  0.00    +0.000 OA
ATOM     17  OXT LEU A   2      11.225  55.194   6.820  0.00  0.00    +0.000 OA
ENDBRANCH   5  15
BRANCH   5   4
ATOM      4  CB  LEU A   2      12.033  57.424   6.126  0.00  0.00    +0.000 C 
BRANCH   4   2
ATOM      1  CD1 LEU A   2      12.865  59.203   4.955  0.00  0.00    +0.000 C 
ATOM      2  CG  LEU A   2      13.028  58.557   6.044  0.00  0.00    +0.000 C 
ATOM      3  CD2 LEU A   2      12.947  59.433   7.252  0.00  0.00    +0.000 C 
ENDBRANCH   4   2
ENDBRANCH   5   4
ENDBRANCH   6   5
TORSDOF 7
ENDMDL
MODEL 3
REMARK VINA RESULT:      -4.7     20.420     22.199
REMARK  Name = 
REMARK  7 active torsions:
REMARK  status: ('A' for Active; 'I' for Inactive)
REMARK    1  A    between atoms: CG_2  and  CB_4
REMARK    2  A    between atoms: CB_4  and  CA_5
REMARK    3  A    between atoms: CA_5  and  N_6
REMARK    4  A    between atoms: CA_5  and  C_15
REMARK    5  A    between atoms: C_7  and  CA_9
REMARK    6  A    between atoms: CA_9  and  CB_11
REMARK    7  A    between atoms: CB_11  and  CG_12
REMARK                            x       y       z     vdW  Elec       q    Type
REMARK                         _______ _______ _______ _____ _____    ______ ____
ROOT
ATOM      6  N   LEU A   2      17.665  66.705  12.071  0.00  0.00    +0.000 NA
ATOM      7  C   ASP A   1      16.327  66.690  11.626  0.00  0.00    +0.000 C 
ATOM      8  O   ASP A   1      15.596  67.604  12.083  0.00  0.00    +0.000 OA
ENDROOT
BRANCH   7   9
ATOM      9  CA  ASP A   1      16.455  66.747   9.982  0.00  0.00    +0.000 C 
ATOM     10  N   ASP A   1      16.254  68.339   9.931  0.00  0.00    +0.000 NA
BRANCH   9  11
ATOM     11  CB  ASP A   1      14.813  66.497   9.792  0.00  0.00    +0.000 C 
BRANCH  11  12
ATOM     12  CG  ASP A   1      14.747  66.421   8.304  0.00  0.00    +0.000 C 
ATOM     13  OD1 ASP A   1      13.730  66.917   7.744  0.00  0.00    +0.000 OA
ATOM     14  OD2 ASP A   1      15.698  65.663   7.611  0.00  0.00    +0.000 OA
ENDBRANCH  11  12
ENDBRANCH   9  11
ENDBRANCH   7   9
BRANCH   6   5
ATOM      5  CA  LEU A   2      17.955  67.260  13.546  0.00  0.00    +0.000 C 
BRANCH   5  15
ATOM     15  C   LEU A   2      18.685  65.858  13.993  0.00  0.00    +0.000 C 
ATOM     16  O   LEU A   2      18.950  65.066  13.096  0.00  0.00    +0.000 OA
ATOM     17  OXT LEU A   2      19.030  65.797  15.317  0.00  0.00    +0.000 OA
ENDBRANCH   5  15
BRANCH   5   4
ATOM      4  CB  LEU A   2      19.426  67.962  13.144  0.00  0.00    +0.000 C 
BRANCH   4   2
ATOM      1  CD1 LEU A   2      20.088  70.043  13.819  0.00  0.00    +0.000 C 
ATOM      2  CG  LEU A   2      19.152  69.445  13.190  0.00  0.00    +0.000 C 
ATOM      3  CD2 LEU A   2      18.938  69.996  11.817  0.00  0.00    +0.000 C 
ENDBRANCH   4   2
ENDBRANCH   5   4
ENDBRANCH   6   5
TORSDOF 7
ENDMDL
MODEL 4
REMARK VINA RESULT:      -4.5     13.608     14.902
REMARK  Name = 
REMARK  7 active torsions:
REMARK  status: ('A' for Active; 'I' for Inactive)
REMARK    1  A    between atoms: CG_2  and  CB_4
REMARK    2  A    between atoms: CB_4  and  CA_5
REMARK    3  A    between atoms: CA_5  and  N_6
REMARK    4  A    between atoms: CA_5  and  C_15
REMARK    5  A    between atoms: C_7  and  CA_9
REMARK    6  A    between atoms: CA_9  and  CB_11
REMARK    7  A    between atoms: CB_11  and  CG_12
REMARK                            x       y       z     vdW  Elec       q    Type
REMARK                         _______ _______ _______ _____ _____    ______ ____
ROOT
ATOM      6  N   LEU A   2      16.327  61.304 -16.373  0.00  0.00    +0.000 NA
ATOM      7  C   ASP A   1      15.218  62.159 -16.207  0.00  0.00    +0.000 C 
ATOM      8  O   ASP A   1      14.150  61.767 -16.739  0.00  0.00    +0.000 OA
ENDROOT
BRANCH   7   9
ATOM      9  CA  ASP A   1      15.084  62.321 -14.570  0.00  0.00    +0.000 C 
ATOM     10  N   ASP A   1      16.545  61.713 -14.299  0.00  0.00    +0.000 NA
BRANCH   9  11
ATOM     11  CB  ASP A   1      14.387  60.808 -14.424  0.00  0.00    +0.000 C 
BRANCH  11  12
ATOM     12  CG  ASP A   1      13.801  60.939 -13.059  0.00  0.00    +0.000 C 
ATOM     13  OD1 ASP A   1      12.665  61.483 -12.968  0.00  0.00    +0.000 OA
ATOM     14  OD2 ASP A   1      14.584  60.630 -11.941  0.00  0.00    +0.000 OA
ENDBRANCH  11  12
ENDBRANCH   9  11
ENDBRANCH   7   9
BRANCH   6   5
ATOM      5  CA  LEU A   2      16.409  60.441 -17.720  0.00  0.00    +0.000 C 
BRANCH   5  15
ATOM     15  C   LEU A   2      18.013  60.156 -17.510  0.00  0.00    +0.000 C 
ATOM     16  O   LEU A   2      18.402  59.015 -17.733  0.00  0.00    +0.000 OA
ATOM     17  OXT LEU A   2      18.754  61.273 -17.233  0.00  0.00    +0.000 OA
ENDBRANCH   5  15
BRANCH   5   4
ATOM      4  CB  LEU A   2      15.998  58.990 -16.983  0.00  0.00    +0.000 C 
BRANCH   4   2
ATOM      1  CD1 LEU A   2      15.133  57.962 -18.832  0.00  0.00    +0.000 C 
ATOM      2  CG  LEU A   2      14.779  58.522 -17.741  0.00  0.00    +0.000 C 
ATOM      3  CD2 LEU A   2      13.922  57.641 -16.891  0.00  0.00    +0.000 C 
ENDBRANCH   4   2
ENDBRANCH   5   4
ENDBRANCH   6   5
TORSDOF 7
ENDMDL
MODEL 5
REMARK VINA RESULT:      -4.5     19.599     21.368
REMARK  Name = 
REMARK  7 active torsions:
REMARK  status: ('A' for Active; 'I' for Inactive)
REMARK    1  A    between atoms: CG_2  and  CB_4
REMARK    2  A    between atoms: CB_4  and  CA_5
REMARK    3  A    between atoms: CA_5  and  N_6
REMARK    4  A    between atoms: CA_5  and  C_15
REMARK    5  A    between atoms: C_7  and  CA_9
REMARK    6  A    between atoms: CA_9  and  CB_11
REMARK    7  A    between atoms: CB_11  and  CG_12
REMARK                            x       y       z     vdW  Elec       q    Type
REMARK                         _______ _______ _______ _____ _____    ______ ____
ROOT
ATOM      6  N   LEU A   2      17.028  66.793  11.065  0.00  0.00    +0.000 NA
ATOM      7  C   ASP A   1      15.869  66.856  10.264  0.00  0.00    +0.000 C 
ATOM      8  O   ASP A   1      15.496  68.013   9.945  0.00  0.00    +0.000 OA
ENDROOT
BRANCH   7   9
ATOM      9  CA  ASP A   1      16.245  65.930   8.950  0.00  0.00    +0.000 C 
ATOM     10  N   ASP A   1      17.703  65.563   9.513  0.00  0.00    +0.000 NA
BRANCH   9  11
ATOM     11  CB  ASP A   1      16.855  67.252   8.127  0.00  0.00    +0.000 C 
BRANCH  11  12
ATOM     12  CG  ASP A   1      16.373  66.929   6.754  0.00  0.00    +0.000 C 
ATOM     13  OD1 ASP A   1      15.298  67.472   6.376  0.00  0.00    +0.000 OA
ATOM     14  OD2 ASP A   1      17.012  65.923   6.019  0.00  0.00    +0.000 OA
ENDBRANCH  11  12
ENDBRANCH   9  11
ENDBRANCH   7   9
BRANCH   6   5
ATOM      5  CA  LEU A   2      17.296  67.998  12.086  0.00  0.00    +0.000 C 
BRANCH   5  15
ATOM     15  C   LEU A   2      17.705  66.963  13.294  0.00  0.00    +0.000 C 
ATOM     16  O   LEU A   2      17.844  65.785  12.983  0.00  0.00    +0.000 OA
ATOM     17  OXT LEU A   2      17.971  67.568  14.493  0.00  0.00    +0.000 OA
ENDBRANCH   5  15
BRANCH   5   4
ATOM      4  CB  LEU A   2      18.902  68.203  11.643  0.00  0.00    +0.000 C 
BRANCH   4   2
ATOM      1  CD1 LEU A   2      17.990  70.252  11.201  0.00  0.00    +0.000 C 
ATOM      2  CG  LEU A   2      19.079  69.701  11.576  0.00  0.00    +0.000 C 
ATOM      3  CD2 LEU A   2      19.580  70.243  12.876  0.00  0.00    +0.000 C 
ENDBRANCH   4   2
ENDBRANCH   5   4
ENDBRANCH   6   5
TORSDOF 7
ENDMDL
MODEL 6
REMARK VINA RESULT:      -4.5     12.918     14.922
REMARK  Name = 
REMARK  7 active torsions:
REMARK  status: ('A' for Active; 'I' for Inactive)
REMARK    1  A    between atoms: CG_2  and  CB_4
REMARK    2  A    between atoms: CB_4  and  CA_5
REMARK    3  A    between atoms: CA_5  and  N_6
REMARK    4  A    between atoms: CA_5  and  C_15
REMARK    5  A    between atoms: C_7  and  CA_9
REMARK    6  A    between atoms: CA_9  and  CB_11
REMARK    7  A    between atoms: CB_11  and  CG_12
REMARK                            x       y       z     vdW  Elec       q    Type
REMARK                         _______ _______ _______ _____ _____    ______ ____
ROOT
ATOM      6  N   LEU A   2      16.807  65.461 -12.562  0.00  0.00    +0.000 NA
ATOM      7  C   ASP A   1      18.008  66.108 -12.206  0.00  0.00    +0.000 C 
ATOM      8  O   ASP A   1      18.019  67.354 -12.370  0.00  0.00    +0.000 OA
ENDROOT
BRANCH   7   9
ATOM      9  CA  ASP A   1      18.235  65.679 -10.628  0.00  0.00    +0.000 C 
ATOM     10  N   ASP A   1      16.993  64.663 -10.631  0.00  0.00    +0.000 NA
BRANCH   9  11
ATOM     11  CB  ASP A   1      17.261  66.928 -10.092  0.00  0.00    +0.000 C 
BRANCH  11  12
ATOM     12  CG  ASP A   1      18.145  67.491  -9.032  0.00  0.00    +0.000 C 
ATOM     13  OD1 ASP A   1      17.616  68.267  -8.189  0.00  0.00    +0.000 OA
ATOM     14  OD2 ASP A   1      19.529  67.292  -9.113  0.00  0.00    +0.000 OA
ENDBRANCH  11  12
ENDBRANCH   9  11
ENDBRANCH   7   9
BRANCH   6   5
ATOM      5  CA  LEU A   2      15.949  66.087 -13.762  0.00  0.00    +0.000 C 
BRANCH   5  15
ATOM     15  C   LEU A   2      15.346  64.617 -14.177  0.00  0.00    +0.000 C 
ATOM     16  O   LEU A   2      16.029  63.641 -13.886  0.00  0.00    +0.000 OA
ATOM     17  OXT LEU A   2      14.077  64.650 -14.689  0.00  0.00    +0.000 OA
ENDBRANCH   5  15
BRANCH   5   4
ATOM      4  CB  LEU A   2      14.609  66.431 -12.812  0.00  0.00    +0.000 C 
BRANCH   4   2
ATOM      1  CD1 LEU A   2      15.052  68.316 -14.026  0.00  0.00    +0.000 C 
ATOM      2  CG  LEU A   2      14.373  67.906 -13.025  0.00  0.00    +0.000 C 
ATOM      3  CD2 LEU A   2      12.914  68.205 -13.158  0.00  0.00    +0.000 C 
ENDBRANCH   4   2
ENDBRANCH   5   4
ENDBRANCH   6   5
TORSDOF 7
ENDMDL
MODEL 7
REMARK VINA RESULT:      -4.5     30.811     32.931
REMARK  Name = 
REMARK  7 active torsions:
REMARK  status: ('A' for Active; 'I' for Inactive)
REMARK    1  A    between atoms: CG_2  and  CB_4
REMARK    2  A    between atoms: CB_4  and  CA_5
REMARK    3  A    between atoms: CA_5  and  N_6
REMARK    4  A    between atoms: CA_5  and  C_15
REMARK    5  A    between atoms: C_7  and  CA_9
REMARK    6  A    between atoms: CA_9  and  CB_11
REMARK    7  A    between atoms: CB_11  and  CG_12
REMARK                            x       y       z     vdW  Elec       q    Type
REMARK                         _______ _______ _______ _____ _____    ______ ____
ROOT
ATOM      6  N   LEU A   2       6.445  54.518  20.844  0.00  0.00    +0.000 NA
ATOM      7  C   ASP A   1       6.391  55.878  21.212  0.00  0.00    +0.000 C 
ATOM      8  O   ASP A   1       5.806  56.635  20.397  0.00  0.00    +0.000 OA
ENDROOT
BRANCH   7   9
ATOM      9  CA  ASP A   1       5.658  55.859  22.691  0.00  0.00    +0.000 C 
ATOM     10  N   ASP A   1       5.596  54.255  22.740  0.00  0.00    +0.000 NA
BRANCH   9  11
ATOM     11  CB  ASP A   1       4.138  55.933  21.998  0.00  0.00    +0.000 C 
BRANCH  11  12
ATOM     12  CG  ASP A   1       3.430  56.727  23.043  0.00  0.00    +0.000 C 
ATOM     13  OD1 ASP A   1       3.622  57.974  23.051  0.00  0.00    +0.000 OA
ATOM     14  OD2 ASP A   1       2.742  56.060  24.064  0.00  0.00    +0.000 OA
ENDBRANCH  11  12
ENDBRANCH   9  11
ENDBRANCH   7   9
BRANCH   6   5
ATOM      5  CA  LEU A   2       6.517  54.169  19.282  0.00  0.00    +0.000 C 
BRANCH   5  15
ATOM     15  C   LEU A   2       7.925  53.345  19.470  0.00  0.00    +0.000 C 
ATOM     16  O   LEU A   2       8.805  53.563  18.644  0.00  0.00    +0.000 OA
ATOM     17  OXT LEU A   2       7.996  52.600  20.617  0.00  0.00    +0.000 OA
ENDBRANCH   5  15
BRANCH   5   4
ATOM      4  CB  LEU A   2       5.612  52.762  19.410  0.00  0.00    +0.000 C 
BRANCH   4   2
ATOM      1  CD1 LEU A   2       5.435  51.028  17.930  0.00  0.00    +0.000 C 
ATOM      2  CG  LEU A   2       5.438  52.304  17.982  0.00  0.00    +0.000 C 
ATOM      3  CD2 LEU A   2       4.216  52.908  17.368  0.00  0.00    +0.000 C 
ENDBRANCH   4   2
ENDBRANCH   5   4
ENDBRANCH   6   5
TORSDOF 7
ENDMDL
MODEL 8
REMARK VINA RESULT:      -4.4     21.079     22.793
REMARK  Name = 
REMARK  7 active torsions:
REMARK  status: ('A' for Active; 'I' for Inactive)
REMARK    1  A    between atoms: CG_2  and  CB_4
REMARK    2  A    between atoms: CB_4  and  CA_5
REMARK    3  A    between atoms: CA_5  and  N_6
REMARK    4  A    between atoms: CA_5  and  C_15
REMARK    5  A    between atoms: C_7  and  CA_9
REMARK    6  A    between atoms: CA_9  and  CB_11
REMARK    7  A    between atoms: CB_11  and  CG_12
REMARK                            x       y       z     vdW  Elec       q    Type
REMARK                         _______ _______ _______ _____ _____    ______ ____
ROOT
ATOM      6  N   LEU A   2      17.977  66.515  13.182  0.00  0.00    +0.000 NA
ATOM      7  C   ASP A   1      16.704  66.813  12.653  0.00  0.00    +0.000 C 
ATOM      8  O   ASP A   1      16.285  67.976  12.879  0.00  0.00    +0.000 OA
ENDROOT
BRANCH   7   9
ATOM      9  CA  ASP A   1      16.864  66.503  11.040  0.00  0.00    +0.000 C 
ATOM     10  N   ASP A   1      18.169  65.593  11.251  0.00  0.00    +0.000 NA
BRANCH   9  11
ATOM     11  CB  ASP A   1      17.805  67.867  10.816  0.00  0.00    +0.000 C 
BRANCH  11  12
ATOM     12  CG  ASP A   1      17.162  68.408   9.584  0.00  0.00    +0.000 C 
ATOM     13  OD1 ASP A   1      17.328  69.635   9.337  0.00  0.00    +0.000 OA
ATOM     14  OD2 ASP A   1      16.271  67.605   8.863  0.00  0.00    +0.000 OA
ENDBRANCH  11  12
ENDBRANCH   9  11
ENDBRANCH   7   9
BRANCH   6   5
ATOM      5  CA  LEU A   2      18.406  67.237  14.546  0.00  0.00    +0.000 C 
BRANCH   5  15
ATOM     15  C   LEU A   2      19.281  65.934  15.030  0.00  0.00    +0.000 C 
ATOM     16  O   LEU A   2      18.797  64.832  14.801  0.00  0.00    +0.000 OA
ATOM     17  OXT LEU A   2      20.523  66.237  15.522  0.00  0.00    +0.000 OA
ENDBRANCH   5  15
BRANCH   5   4
ATOM      4  CB  LEU A   2      19.764  67.976  13.892  0.00  0.00    +0.000 C 
BRANCH   4   2
ATOM      1  CD1 LEU A   2      20.300  69.826  15.123  0.00  0.00    +0.000 C 
ATOM      2  CG  LEU A   2      19.551  69.446  14.162  0.00  0.00    +0.000 C 
ATOM      3  CD2 LEU A   2      19.750  70.255  12.921  0.00  0.00    +0.000 C 
ENDBRANCH   4   2
ENDBRANCH   5   4
ENDBRANCH   6   5
TORSDOF 7
ENDMDL
MODEL 9
REMARK VINA RESULT:      -4.4     18.919     21.037
REMARK  Name = 
REMARK  7 active torsions:
REMARK  status: ('A' for Active; 'I' for Inactive)
REMARK    1  A    between atoms: CG_2  and  CB_4
REMARK    2  A    between atoms: CB_4  and  CA_5
REMARK    3  A    between atoms: CA_5  and  N_6
REMARK    4  A    between atoms: CA_5  and  C_15
REMARK    5  A    between atoms: C_7  and  CA_9
REMARK    6  A    between atoms: CA_9  and  CB_11
REMARK    7  A    between atoms: CB_11  and  CG_12
REMARK                            x       y       z     vdW  Elec       q    Type
REMARK                         _______ _______ _______ _____ _____    ______ ____
ROOT
ATOM      6  N   LEU A   2       8.392  57.394   8.069  0.00  0.00    +0.000 NA
ATOM      7  C   ASP A   1       8.674  56.199   7.377  0.00  0.00    +0.000 C 
ATOM      8  O   ASP A   1       8.265  56.153   6.190  0.00  0.00    +0.000 OA
ENDROOT
BRANCH   7   9
ATOM      9  CA  ASP A   1      10.315  56.056   7.484  0.00  0.00    +0.000 C 
ATOM     10  N   ASP A   1      10.406  57.019   8.766  0.00  0.00    +0.000 NA
BRANCH   9  11
ATOM     11  CB  ASP A   1      10.548  57.349   6.450  0.00  0.00    +0.000 C 
BRANCH  11  12
ATOM     12  CG  ASP A   1      11.650  56.797   5.611  0.00  0.00    +0.000 C 
ATOM     13  OD1 ASP A   1      12.825  57.166   5.884  0.00  0.00    +0.000 OA
ATOM     14  OD2 ASP A   1      11.336  56.051   4.468  0.00  0.00    +0.000 OA
ENDBRANCH  11  12
ENDBRANCH   9  11
ENDBRANCH   7   9
BRANCH   6   5
ATOM      5  CA  LEU A   2       7.049  58.180   7.687  0.00  0.00    +0.000 C 
BRANCH   5  15
ATOM     15  C   LEU A   2       6.718  58.503   9.263  0.00  0.00    +0.000 C 
ATOM     16  O   LEU A   2       7.171  57.719  10.090  0.00  0.00    +0.000 OA
ATOM     17  OXT LEU A   2       6.079  59.694   9.474  0.00  0.00    +0.000 OA
ENDBRANCH   5  15
BRANCH   5   4
ATOM      4  CB  LEU A   2       7.807  59.664   7.484  0.00  0.00    +0.000 C 
BRANCH   4   2
ATOM      1  CD1 LEU A   2       8.349  60.156   5.319  0.00  0.00    +0.000 C 
ATOM      2  CG  LEU A   2       7.356  60.126   6.120  0.00  0.00    +0.000 C 
ATOM      3  CD2 LEU A   2       6.230  59.285   5.612  0.00  0.00    +0.000 C 
ENDBRANCH   4   2
ENDBRANCH   5   4
ENDBRANCH   6   5
TORSDOF 7
ENDMDL
MODEL 10
REMARK VINA RESULT:      -4.4     18.595     20.617
REMARK  Name = 
REMARK  7 active torsions:
REMARK  status: ('A' for Active; 'I' for Inactive)
REMARK    1  A    between atoms: CG_2  and  CB_4
REMARK    2  A    between atoms: CB_4  and  CA_5
REMARK    3  A    between atoms: CA_5  and  N_6
REMARK    4  A    between atoms: CA_5  and  C_15
REMARK    5  A    between atoms: C_7  and  CA_9
REMARK    6  A    between atoms: CA_9  and  CB_11
REMARK    7  A    between atoms: CB_11  and  CG_12
REMARK                            x       y       z     vdW  Elec       q    Type
REMARK                         _______ _______ _______ _____ _____    ______ ____
ROOT
ATOM      6  N   LEU A   2       9.838  57.547   7.016  0.00  0.00    +0.000 NA
ATOM      7  C   ASP A   1       8.918  57.675   8.077  0.00  0.00    +0.000 C 
ATOM      8  O   ASP A   1       9.403  58.068   9.167  0.00  0.00    +0.000 OA
ENDROOT
BRANCH   7   9
ATOM      9  CA  ASP A   1       7.775  58.709   7.487  0.00  0.00    +0.000 C 
ATOM     10  N   ASP A   1       8.546  60.011   8.022  0.00  0.00    +0.000 NA
BRANCH   9  11
ATOM     11  CB  ASP A   1       6.882  58.612   8.898  0.00  0.00    +0.000 C 
BRANCH  11  12
ATOM     12  CG  ASP A   1       5.569  59.102   8.391  0.00  0.00    +0.000 C 
ATOM     13  OD1 ASP A   1       5.349  58.992   7.153  0.00  0.00    +0.000 OA
ATOM     14  OD2 ASP A   1       4.722  59.812   9.250  0.00  0.00    +0.000 OA
ENDBRANCH  11  12
ENDBRANCH   9  11
ENDBRANCH   7   9
BRANCH   6   5
ATOM      5  CA  LEU A   2      11.345  57.141   7.379  0.00  0.00    +0.000 C 
BRANCH   5  15
ATOM     15  C   LEU A   2      11.463  56.167   6.062  0.00  0.00    +0.000 C 
ATOM     16  O   LEU A   2      11.752  56.709   5.001  0.00  0.00    +0.000 OA
ATOM     17  OXT LEU A   2      11.349  54.830   6.335  0.00  0.00    +0.000 OA
ENDBRANCH   5  15
BRANCH   5   4
ATOM      4  CB  LEU A   2      12.039  58.429   6.556  0.00  0.00    +0.000 C 
BRANCH   4   2
ATOM      1  CD1 LEU A   2      13.502  60.007   7.328  0.00  0.00    +0.000 C 
ATOM      2  CG  LEU A   2      13.280  58.750   7.353  0.00  0.00    +0.000 C 
ATOM      3  CD2 LEU A   2      13.183  58.210   8.743  0.00  0.00    +0.000 C 
ENDBRANCH   4   2
ENDBRANCH   5   4
ENDBRANCH   6   5
TORSDOF 7
ENDMDL
