MODEL 1
REMARK VINA RESULT:      -4.8      0.000      0.000
REMARK  Name = 
REMARK  6 active torsions:
REMARK  status: ('A' for Active; 'I' for Inactive)
REMARK    1  A    between atoms: CA_2  and  CB_3
REMARK    2  A    between atoms: CA_2  and  C_7
REMARK    3  A    between atoms: CB_3  and  CG_4
REMARK    4  A    between atoms: N_9  and  CA_10
REMARK    5  A    between atoms: CA_10  and  CB_11
REMARK    6  A    between atoms: CA_10  and  C_13
REMARK                            x       y       z     vdW  Elec       q    Type
REMARK                         _______ _______ _______ _____ _____    ______ ____
ROOT
ATOM      7  C   ASP A   1      25.449  55.964  -5.907  0.00  0.00    +0.000 C 
ATOM      8  O   ASP A   1      26.109  56.651  -5.133  0.00  0.00    +0.000 OA
ATOM      9  N   SER A   2      24.088  56.248  -5.952  0.00  0.00    +0.000 NA
ENDROOT
BRANCH   7   2
ATOM      1  N   ASP A   1      25.205  56.127  -8.200  0.00  0.00    +0.000 NA
ATOM      2  CA  ASP A   1      26.152  55.342  -7.208  0.00  0.00    +0.000 C 
BRANCH   2   3
ATOM      3  CB  ASP A   1      27.345  56.471  -7.179  0.00  0.00    +0.000 C 
BRANCH   3   4
ATOM      4  CG  ASP A   1      27.866  56.732  -8.489  0.00  0.00    +0.000 C 
ATOM      5  OD1 ASP A   1      28.706  55.902  -8.955  0.00  0.00    +0.000 OA
ATOM      6  OD2 ASP A   1      28.091  58.042  -8.933  0.00  0.00    +0.000 OA
ENDBRANCH   3   4
ENDBRANCH   2   3
ENDBRANCH   7   2
BRANCH   9  10
ATOM     10  CA  SER A   2      23.352  56.166  -4.559  0.00  0.00    +0.000 C 
BRANCH  10  13
ATOM     13  C   SER A   2      22.846  54.669  -4.877  0.00  0.00    +0.000 C 
ATOM     14  O   SER A   2      22.511  54.094  -3.821  0.00  0.00    +0.000 OA
ATOM     15  OXT SER A   2      22.268  54.406  -6.073  0.00  0.00    +0.000 OA
ENDBRANCH  10  13
BRANCH  10  11
ATOM     11  CB  SER A   2      21.962  56.860  -5.106  0.00  0.00    +0.000 C 
ATOM     12  OG  SER A   2      22.441  57.749  -6.081  0.00  0.00    +0.000 OA
ENDBRANCH  10  11
ENDBRANCH   9  10
TORSDOF 6
ENDMDL
MODEL 2
REMARK VINA RESULT:      -4.6     20.586     22.478
REMARK  Name = 
REMARK  6 active torsions:
REMARK  status: ('A' for Active; 'I' for Inactive)
REMARK    1  A    between atoms: CA_2  and  CB_3
REMARK    2  A    between atoms: CA_2  and  C_7
REMARK    3  A    between atoms: CB_3  and  CG_4
REMARK    4  A    between atoms: N_9  and  CA_10
REMARK    5  A    between atoms: CA_10  and  CB_11
REMARK    6  A    between atoms: CA_10  and  C_13
REMARK                            x       y       z     vdW  Elec       q    Type
REMARK                         _______ _______ _______ _____ _____    ______ ____
ROOT
ATOM      7  C   ASP A   1      17.066  68.640  11.670  0.00  0.00    +0.000 C 
ATOM      8  O   ASP A   1      16.506  68.496  12.753  0.00  0.00    +0.000 OA
ATOM      9  N   SER A   2      16.435  68.045  10.583  0.00  0.00    +0.000 NA
ENDROOT
BRANCH   7   2
ATOM      1  N   ASP A   1      19.274  69.069  11.133  0.00  0.00    +0.000 NA
ATOM      2  CA  ASP A   1      17.982  69.934  11.420  0.00  0.00    +0.000 C 
BRANCH   2   3
ATOM      3  CB  ASP A   1      17.500  70.048   9.854  0.00  0.00    +0.000 C 
BRANCH   3   4
ATOM      4  CG  ASP A   1      17.623  71.386   9.352  0.00  0.00    +0.000 C 
ATOM      5  OD1 ASP A   1      17.301  72.330  10.138  0.00  0.00    +0.000 OA
ATOM      6  OD2 ASP A   1      17.366  71.684   8.008  0.00  0.00    +0.000 OA
ENDBRANCH   3   4
ENDBRANCH   2   3
ENDBRANCH   7   2
BRANCH   9  10
ATOM     10  CA  SER A   2      16.177  66.497  10.738  0.00  0.00    +0.000 C 
BRANCH  10  13
ATOM     13  C   SER A   2      17.462  66.157   9.828  0.00  0.00    +0.000 C 
ATOM     14  O   SER A   2      18.389  65.714  10.538  0.00  0.00    +0.000 OA
ATOM     15  OXT SER A   2      17.281  65.783   8.539  0.00  0.00    +0.000 OA
ENDBRANCH  10  13
BRANCH  10  11
ATOM     11  CB  SER A   2      15.131  66.413   9.468  0.00  0.00    +0.000 C 
ATOM     12  OG  SER A   2      14.515  67.674   9.510  0.00  0.00    +0.000 OA
ENDBRANCH  10  11
ENDBRANCH   9  10
TORSDOF 6
ENDMDL
MODEL 3
REMARK VINA RESULT:      -4.6     18.063     20.480
REMARK  Name = 
REMARK  6 active torsions:
REMARK  status: ('A' for Active; 'I' for Inactive)
REMARK    1  A    between atoms: CA_2  and  CB_3
REMARK    2  A    between atoms: CA_2  and  C_7
REMARK    3  A    between atoms: CB_3  and  CG_4
REMARK    4  A    between atoms: N_9  and  CA_10
REMARK    5  A    between atoms: CA_10  and  CB_11
REMARK    6  A    between atoms: CA_10  and  C_13
REMARK                            x       y       z     vdW  Elec       q    Type
REMARK                         _______ _______ _______ _____ _____    ______ ____
ROOT
ATOM      7  C   ASP A   1       9.724  59.156   7.174  0.00  0.00    +0.000 C 
ATOM      8  O   ASP A   1       9.132  59.589   6.190  0.00  0.00    +0.000 OA
ATOM      9  N   SER A   2      11.037  59.592   7.325  0.00  0.00    +0.000 NA
ENDROOT
BRANCH   7   2
ATOM      1  N   ASP A   1       7.727  59.770   8.164  0.00  0.00    +0.000 NA
ATOM      2  CA  ASP A   1       8.890  58.747   8.482  0.00  0.00    +0.000 C 
BRANCH   2   3
ATOM      3  CB  ASP A   1       8.204  57.464   7.720  0.00  0.00    +0.000 C 
BRANCH   3   4
ATOM      4  CG  ASP A   1       8.977  56.268   7.885  0.00  0.00    +0.000 C 
ATOM      5  OD1 ASP A   1       9.590  56.122   8.987  0.00  0.00    +0.000 OA
ATOM      6  OD2 ASP A   1       9.651  55.685   6.804  0.00  0.00    +0.000 OA
ENDBRANCH   3   4
ENDBRANCH   2   3
ENDBRANCH   7   2
BRANCH   9  10
ATOM     10  CA  SER A   2      11.973  59.300   6.089  0.00  0.00    +0.000 C 
BRANCH  10  13
ATOM     13  C   SER A   2      12.377  57.861   6.691  0.00  0.00    +0.000 C 
ATOM     14  O   SER A   2      12.863  57.140   5.796  0.00  0.00    +0.000 OA
ATOM     15  OXT SER A   2      12.744  57.767   7.991  0.00  0.00    +0.000 OA
ENDBRANCH  10  13
BRANCH  10  11
ATOM     11  CB  SER A   2      13.285  60.053   6.741  0.00  0.00    +0.000 C 
ATOM     12  OG  SER A   2      13.964  60.503   5.597  0.00  0.00    +0.000 OA
ENDBRANCH  10  11
ENDBRANCH   9  10
TORSDOF 6
ENDMDL
MODEL 4
REMARK VINA RESULT:      -4.5     16.904     19.828
REMARK  Name = 
REMARK  6 active torsions:
REMARK  status: ('A' for Active; 'I' for Inactive)
REMARK    1  A    between atoms: CA_2  and  CB_3
REMARK    2  A    between atoms: CA_2  and  C_7
REMARK    3  A    between atoms: CB_3  and  CG_4
REMARK    4  A    between atoms: N_9  and  CA_10
REMARK    5  A    between atoms: CA_10  and  CB_11
REMARK    6  A    between atoms: CA_10  and  C_13
REMARK                            x       y       z     vdW  Elec       q    Type
REMARK                         _______ _______ _______ _____ _____    ______ ____
ROOT
ATOM      7  C   ASP A   1       7.216  50.575  -0.850  0.00  0.00    +0.000 C 
ATOM      8  O   ASP A   1       6.033  50.472  -1.160  0.00  0.00    +0.000 OA
ATOM      9  N   SER A   2       7.715  51.872  -0.804  0.00  0.00    +0.000 NA
ENDROOT
BRANCH   7   2
ATOM      1  N   ASP A   1       8.606  50.524   0.997  0.00  0.00    +0.000 NA
ATOM      2  CA  ASP A   1       7.890  49.454   0.080  0.00  0.00    +0.000 C 
BRANCH   2   3
ATOM      3  CB  ASP A   1       6.537  49.316   1.001  0.00  0.00    +0.000 C 
BRANCH   3   4
ATOM      4  CG  ASP A   1       6.668  48.292   1.996  0.00  0.00    +0.000 C 
ATOM      5  OD1 ASP A   1       6.416  48.616   3.197  0.00  0.00    +0.000 OA
ATOM      6  OD2 ASP A   1       7.656  47.304   1.894  0.00  0.00    +0.000 OA
ENDBRANCH   3   4
ENDBRANCH   2   3
ENDBRANCH   7   2
BRANCH   9  10
ATOM     10  CA  SER A   2       7.542  52.692  -2.140  0.00  0.00    +0.000 C 
BRANCH  10  13
ATOM     13  C   SER A   2       8.991  53.371  -1.952  0.00  0.00    +0.000 C 
ATOM     14  O   SER A   2       9.116  53.805  -0.788  0.00  0.00    +0.000 OA
ATOM     15  OXT SER A   2      10.036  52.915  -2.682  0.00  0.00    +0.000 OA
ENDBRANCH  10  13
BRANCH  10  11
ATOM     11  CB  SER A   2       6.750  53.945  -1.421  0.00  0.00    +0.000 C 
ATOM     12  OG  SER A   2       5.446  53.794  -1.920  0.00  0.00    +0.000 OA
ENDBRANCH  10  11
ENDBRANCH   9  10
TORSDOF 6
ENDMDL
MODEL 5
REMARK VINA RESULT:      -4.4      1.822      2.592
REMARK  Name = 
REMARK  6 active torsions:
REMARK  status: ('A' for Active; 'I' for Inactive)
REMARK    1  A    between atoms: CA_2  and  CB_3
REMARK    2  A    between atoms: CA_2  and  C_7
REMARK    3  A    between atoms: CB_3  and  CG_4
REMARK    4  A    between atoms: N_9  and  CA_10
REMARK    5  A    between atoms: CA_10  and  CB_11
REMARK    6  A    between atoms: CA_10  and  C_13
REMARK                            x       y       z     vdW  Elec       q    Type
REMARK                         _______ _______ _______ _____ _____    ______ ____
ROOT
ATOM      7  C   ASP A   1      25.739  56.210  -5.652  0.00  0.00    +0.000 C 
ATOM      8  O   ASP A   1      26.604  55.781  -4.894  0.00  0.00    +0.000 OA
ATOM      9  N   SER A   2      24.516  56.510  -5.060  0.00  0.00    +0.000 NA
ENDROOT
BRANCH   7   2
ATOM      1  N   ASP A   1      25.012  56.371  -7.841  0.00  0.00    +0.000 NA
ATOM      2  CA  ASP A   1      26.173  57.007  -6.976  0.00  0.00    +0.000 C 
BRANCH   2   3
ATOM      3  CB  ASP A   1      25.335  58.345  -6.520  0.00  0.00    +0.000 C 
BRANCH   3   4
ATOM      4  CG  ASP A   1      26.106  59.542  -6.690  0.00  0.00    +0.000 C 
ATOM      5  OD1 ASP A   1      26.873  59.598  -7.700  0.00  0.00    +0.000 OA
ATOM      6  OD2 ASP A   1      26.605  60.246  -5.587  0.00  0.00    +0.000 OA
ENDBRANCH   3   4
ENDBRANCH   2   3
ENDBRANCH   7   2
BRANCH   9  10
ATOM     10  CA  SER A   2      23.854  55.312  -4.276  0.00  0.00    +0.000 C 
BRANCH  10  13
ATOM     13  C   SER A   2      22.544  55.378  -5.213  0.00  0.00    +0.000 C 
ATOM     14  O   SER A   2      22.248  56.566  -5.457  0.00  0.00    +0.000 OA
ATOM     15  OXT SER A   2      22.299  54.367  -6.080  0.00  0.00    +0.000 OA
ENDBRANCH  10  13
BRANCH  10  11
ATOM     11  CB  SER A   2      23.191  56.270  -3.111  0.00  0.00    +0.000 C 
ATOM     12  OG  SER A   2      22.488  55.339  -2.330  0.00  0.00    +0.000 OA
ENDBRANCH  10  11
ENDBRANCH   9  10
TORSDOF 6
ENDMDL
MODEL 6
REMARK VINA RESULT:      -4.3     17.658     20.266
REMARK  Name = 
REMARK  6 active torsions:
REMARK  status: ('A' for Active; 'I' for Inactive)
REMARK    1  A    between atoms: CA_2  and  CB_3
REMARK    2  A    between atoms: CA_2  and  C_7
REMARK    3  A    between atoms: CB_3  and  CG_4
REMARK    4  A    between atoms: N_9  and  CA_10
REMARK    5  A    between atoms: CA_10  and  CB_11
REMARK    6  A    between atoms: CA_10  and  C_13
REMARK                            x       y       z     vdW  Elec       q    Type
REMARK                         _______ _______ _______ _____ _____    ______ ____
ROOT
ATOM      7  C   ASP A   1      10.575  56.652   6.601  0.00  0.00    +0.000 C 
ATOM      8  O   ASP A   1      10.079  56.134   5.605  0.00  0.00    +0.000 OA
ATOM      9  N   SER A   2      11.102  57.926   6.416  0.00  0.00    +0.000 NA
ENDROOT
BRANCH   7   2
ATOM      1  N   ASP A   1      11.493  55.967   8.609  0.00  0.00    +0.000 NA
ATOM      2  CA  ASP A   1      10.037  56.241   8.056  0.00  0.00    +0.000 C 
BRANCH   2   3
ATOM      3  CB  ASP A   1       9.962  57.810   8.539  0.00  0.00    +0.000 C 
BRANCH   3   4
ATOM      4  CG  ASP A   1       8.609  58.265   8.671  0.00  0.00    +0.000 C 
ATOM      5  OD1 ASP A   1       8.391  59.499   8.470  0.00  0.00    +0.000 OA
ATOM      6  OD2 ASP A   1       7.745  57.707   9.623  0.00  0.00    +0.000 OA
ENDBRANCH   3   4
ENDBRANCH   2   3
ENDBRANCH   7   2
BRANCH   9  10
ATOM     10  CA  SER A   2      12.193  58.029   5.282  0.00  0.00    +0.000 C 
BRANCH  10  13
ATOM     13  C   SER A   2      12.979  59.178   6.095  0.00  0.00    +0.000 C 
ATOM     14  O   SER A   2      13.298  58.763   7.228  0.00  0.00    +0.000 OA
ATOM     15  OXT SER A   2      13.712  60.088   5.412  0.00  0.00    +0.000 OA
ENDBRANCH  10  13
BRANCH  10  11
ATOM     11  CB  SER A   2      11.340  59.111   4.379  0.00  0.00    +0.000 C 
ATOM     12  OG  SER A   2      10.380  59.567   5.297  0.00  0.00    +0.000 OA
ENDBRANCH  10  11
ENDBRANCH   9  10
TORSDOF 6
ENDMDL
MODEL 7
REMARK VINA RESULT:      -4.3      2.564      5.958
REMARK  Name = 
REMARK  6 active torsions:
REMARK  status: ('A' for Active; 'I' for Inactive)
REMARK    1  A    between atoms: CA_2  and  CB_3
REMARK    2  A    between atoms: CA_2  and  C_7
REMARK    3  A    between atoms: CB_3  and  CG_4
REMARK    4  A    between atoms: N_9  and  CA_10
REMARK    5  A    between atoms: CA_10  and  CB_11
REMARK    6  A    between atoms: CA_10  and  C_13
REMARK                            x       y       z     vdW  Elec       q    Type
REMARK                         _______ _______ _______ _____ _____    ______ ____
ROOT
ATOM      7  C   ASP A   1      24.358  57.636  -5.811  0.00  0.00    +0.000 C 
ATOM      8  O   ASP A   1      24.479  56.921  -6.801  0.00  0.00    +0.000 OA
ATOM      9  N   SER A   2      25.111  58.805  -5.818  0.00  0.00    +0.000 NA
ENDROOT
BRANCH   7   2
ATOM      1  N   ASP A   1      22.107  57.941  -6.245  0.00  0.00    +0.000 NA
ATOM      2  CA  ASP A   1      22.988  57.604  -4.976  0.00  0.00    +0.000 C 
BRANCH   2   3
ATOM      3  CB  ASP A   1      22.869  55.971  -5.114  0.00  0.00    +0.000 C 
BRANCH   3   4
ATOM      4  CG  ASP A   1      22.440  55.360  -3.890  0.00  0.00    +0.000 C 
ATOM      5  OD1 ASP A   1      22.262  54.103  -3.902  0.00  0.00    +0.000 OA
ATOM      6  OD2 ASP A   1      21.576  56.025  -3.011  0.00  0.00    +0.000 OA
ENDBRANCH   3   4
ENDBRANCH   2   3
ENDBRANCH   7   2
BRANCH   9  10
ATOM     10  CA  SER A   2      26.661  58.588  -6.011  0.00  0.00    +0.000 C 
BRANCH  10  13
ATOM     13  C   SER A   2      26.991  59.693  -4.886  0.00  0.00    +0.000 C 
ATOM     14  O   SER A   2      28.175  60.075  -4.990  0.00  0.00    +0.000 OA
ATOM     15  OXT SER A   2      25.997  60.495  -4.435  0.00  0.00    +0.000 OA
ENDBRANCH  10  13
BRANCH  10  11
ATOM     11  CB  SER A   2      26.789  59.666  -7.251  0.00  0.00    +0.000 C 
ATOM     12  OG  SER A   2      27.291  58.863  -8.288  0.00  0.00    +0.000 OA
ENDBRANCH  10  11
ENDBRANCH   9  10
TORSDOF 6
ENDMDL
MODEL 8
REMARK VINA RESULT:      -4.3      1.518      2.262
REMARK  Name = 
REMARK  6 active torsions:
REMARK  status: ('A' for Active; 'I' for Inactive)
REMARK    1  A    between atoms: CA_2  and  CB_3
REMARK    2  A    between atoms: CA_2  and  C_7
REMARK    3  A    between atoms: CB_3  and  CG_4
REMARK    4  A    between atoms: N_9  and  CA_10
REMARK    5  A    between atoms: CA_10  and  CB_11
REMARK    6  A    between atoms: CA_10  and  C_13
REMARK                            x       y       z     vdW  Elec       q    Type
REMARK                         _______ _______ _______ _____ _____    ______ ____
ROOT
ATOM      7  C   ASP A   1      24.998  56.947  -6.336  0.00  0.00    +0.000 C 
ATOM      8  O   ASP A   1      24.514  58.072  -6.415  0.00  0.00    +0.000 OA
ATOM      9  N   SER A   2      24.117  55.938  -5.961  0.00  0.00    +0.000 NA
ENDROOT
BRANCH   7   2
ATOM      1  N   ASP A   1      25.382  56.301  -8.523  0.00  0.00    +0.000 NA
ATOM      2  CA  ASP A   1      26.268  56.568  -7.241  0.00  0.00    +0.000 C 
BRANCH   2   3
ATOM      3  CB  ASP A   1      26.580  58.146  -7.574  0.00  0.00    +0.000 C 
BRANCH   3   4
ATOM      4  CG  ASP A   1      27.902  58.331  -8.098  0.00  0.00    +0.000 C 
ATOM      5  OD1 ASP A   1      28.396  59.499  -8.024  0.00  0.00    +0.000 OA
ATOM      6  OD2 ASP A   1      28.342  57.624  -9.224  0.00  0.00    +0.000 OA
ENDBRANCH   3   4
ENDBRANCH   2   3
ENDBRANCH   7   2
BRANCH   9  10
ATOM     10  CA  SER A   2      23.372  56.189  -4.594  0.00  0.00    +0.000 C 
BRANCH  10  13
ATOM     13  C   SER A   2      24.684  55.761  -3.762  0.00  0.00    +0.000 C 
ATOM     14  O   SER A   2      24.731  56.382  -2.679  0.00  0.00    +0.000 OA
ATOM     15  OXT SER A   2      25.188  54.513  -3.915  0.00  0.00    +0.000 OA
ENDBRANCH  10  13
BRANCH  10  11
ATOM     11  CB  SER A   2      22.715  54.680  -4.526  0.00  0.00    +0.000 C 
ATOM     12  OG  SER A   2      22.321  54.471  -5.857  0.00  0.00    +0.000 OA
ENDBRANCH  10  11
ENDBRANCH   9  10
TORSDOF 6
ENDMDL
MODEL 9
REMARK VINA RESULT:      -4.3     14.306     15.425
REMARK  Name = 
REMARK  6 active torsions:
REMARK  status: ('A' for Active; 'I' for Inactive)
REMARK    1  A    between atoms: CA_2  and  CB_3
REMARK    2  A    between atoms: CA_2  and  C_7
REMARK    3  A    between atoms: CB_3  and  CG_4
REMARK    4  A    between atoms: N_9  and  CA_10
REMARK    5  A    between atoms: CA_10  and  CB_11
REMARK    6  A    between atoms: CA_10  and  C_13
REMARK                            x       y       z     vdW  Elec       q    Type
REMARK                         _______ _______ _______ _____ _____    ______ ____
ROOT
ATOM      7  C   ASP A   1      16.123  60.110 -19.253  0.00  0.00    +0.000 C 
ATOM      8  O   ASP A   1      15.265  60.270 -20.116  0.00  0.00    +0.000 OA
ATOM      9  N   SER A   2      17.152  59.233 -19.584  0.00  0.00    +0.000 NA
ENDROOT
BRANCH   7   2
ATOM      1  N   ASP A   1      14.887  61.481 -17.861  0.00  0.00    +0.000 NA
ATOM      2  CA  ASP A   1      16.418  61.286 -18.203  0.00  0.00    +0.000 C 
BRANCH   2   3
ATOM      3  CB  ASP A   1      16.729  60.215 -16.996  0.00  0.00    +0.000 C 
BRANCH   3   4
ATOM      4  CG  ASP A   1      17.924  60.550 -16.278  0.00  0.00    +0.000 C 
ATOM      5  OD1 ASP A   1      17.786  60.983 -15.093  0.00  0.00    +0.000 OA
ATOM      6  OD2 ASP A   1      19.034  61.098 -16.933  0.00  0.00    +0.000 OA
ENDBRANCH   3   4
ENDBRANCH   2   3
ENDBRANCH   7   2
BRANCH   9  10
ATOM     10  CA  SER A   2      16.676  57.788 -20.001  0.00  0.00    +0.000 C 
BRANCH  10  13
ATOM     13  C   SER A   2      17.467  57.133 -18.760  0.00  0.00    +0.000 C 
ATOM     14  O   SER A   2      18.565  57.705 -18.597  0.00  0.00    +0.000 OA
ATOM     15  OXT SER A   2      16.763  56.589 -17.739  0.00  0.00    +0.000 OA
ENDBRANCH  10  13
BRANCH  10  11
ATOM     11  CB  SER A   2      17.920  57.542 -21.054  0.00  0.00    +0.000 C 
ATOM     12  OG  SER A   2      17.848  58.684 -21.867  0.00  0.00    +0.000 OA
ENDBRANCH  10  11
ENDBRANCH   9  10
TORSDOF 6
ENDMDL
MODEL 10
REMARK VINA RESULT:      -4.3     46.841     49.457
REMARK  Name = 
REMARK  6 active torsions:
REMARK  status: ('A' for Active; 'I' for Inactive)
REMARK    1  A    between atoms: CA_2  and  CB_3
REMARK    2  A    between atoms: CA_2  and  C_7
REMARK    3  A    between atoms: CB_3  and  CG_4
REMARK    4  A    between atoms: N_9  and  CA_10
REMARK    5  A    between atoms: CA_10  and  CB_11
REMARK    6  A    between atoms: CA_10  and  C_13
REMARK                            x       y       z     vdW  Elec       q    Type
REMARK                         _______ _______ _______ _____ _____    ______ ____
ROOT
ATOM      7  C   ASP A   1     -10.831  72.535  22.791  0.00  0.00    +0.000 C 
ATOM      8  O   ASP A   1     -10.185  71.572  23.194  0.00  0.00    +0.000 OA
ATOM      9  N   SER A   2     -11.447  73.300  23.777  0.00  0.00    +0.000 NA
ENDROOT
BRANCH   7   2
ATOM      1  N   ASP A   1     -10.491  74.692  22.031  0.00  0.00    +0.000 NA
ATOM      2  CA  ASP A   1     -10.422  73.240  21.409  0.00  0.00    +0.000 C 
BRANCH   2   3
ATOM      3  CB  ASP A   1      -8.820  73.008  21.693  0.00  0.00    +0.000 C 
BRANCH   3   4
ATOM      4  CG  ASP A   1      -8.080  72.836  20.477  0.00  0.00    +0.000 C 
ATOM      5  OD1 ASP A   1      -7.353  73.806  20.100  0.00  0.00    +0.000 OA
ATOM      6  OD2 ASP A   1      -8.604  72.100  19.407  0.00  0.00    +0.000 OA
ENDBRANCH   3   4
ENDBRANCH   2   3
ENDBRANCH   7   2
BRANCH   9  10
ATOM     10  CA  SER A   2     -12.413  72.493  24.728  0.00  0.00    +0.000 C 
BRANCH  10  13
ATOM     13  C   SER A   2     -13.566  72.480  23.602  0.00  0.00    +0.000 C 
ATOM     14  O   SER A   2     -14.192  71.401  23.637  0.00  0.00    +0.000 OA
ATOM     15  OXT SER A   2     -14.138  73.649  23.228  0.00  0.00    +0.000 OA
ENDBRANCH  10  13
BRANCH  10  11
ATOM     11  CB  SER A   2     -13.013  73.835  25.471  0.00  0.00    +0.000 C 
ATOM     12  OG  SER A   2     -13.566  73.298  26.645  0.00  0.00    +0.000 OA
ENDBRANCH  10  11
ENDBRANCH   9  10
TORSDOF 6
ENDMDL
