MODEL 1
REMARK VINA RESULT:      -4.0      0.000      0.000
REMARK  Name = 
REMARK  3 active torsions:
REMARK  status: ('A' for Active; 'I' for Inactive)
REMARK    1  A    between atoms: CA_2  and  CB_3
REMARK    2  A    between atoms: CA_2  and  C_7
REMARK    3  A    between atoms: CB_3  and  CG_4
REMARK                            x       y       z     vdW  Elec       q    Type
REMARK                         _______ _______ _______ _____ _____    ______ ____
ROOT
ATOM      1  N   ASP A   1      18.225  62.648  17.688  0.00  0.00    +0.000 NA
ATOM      2  CA  ASP A   1      18.215  61.131  18.189  0.00  0.00    +0.000 C 
ENDROOT
BRANCH   2   7
ATOM      7  C   ASP A   1      16.588  61.046  18.039  0.00  0.00    +0.000 C 
ATOM      8  O   ASP A   1      16.034  62.178  18.139  0.00  0.00    +0.000 OA
ATOM      9  OXT ASP A   1      16.089  59.976  18.791  0.00  0.00    +0.000 OA
ENDBRANCH   2   7
BRANCH   2   3
ATOM      3  CB  ASP A   1      18.108  61.610  19.783  0.00  0.00    +0.000 C 
BRANCH   3   4
ATOM      4  CG  ASP A   1      19.371  61.047  20.354  0.00  0.00    +0.000 C 
ATOM      5  OD1 ASP A   1      20.278  60.645  19.565  0.00  0.00    +0.000 OA
ATOM      6  OD2 ASP A   1      19.391  60.411  21.600  0.00  0.00    +0.000 OA
ENDBRANCH   3   4
ENDBRANCH   2   3
TORSDOF 3
ENDMDL
MODEL 2
REMARK VINA RESULT:      -3.9      2.219      3.667
REMARK  Name = 
REMARK  3 active torsions:
REMARK  status: ('A' for Active; 'I' for Inactive)
REMARK    1  A    between atoms: CA_2  and  CB_3
REMARK    2  A    between atoms: CA_2  and  C_7
REMARK    3  A    between atoms: CB_3  and  CG_4
REMARK                            x       y       z     vdW  Elec       q    Type
REMARK                         _______ _______ _______ _____ _____    ______ ____
ROOT
ATOM      1  N   ASP A   1      20.025  60.480  18.024  0.00  0.00    +0.000 NA
ATOM      2  CA  ASP A   1      18.652  60.750  17.254  0.00  0.00    +0.000 C 
ENDROOT
BRANCH   2   7
ATOM      7  C   ASP A   1      19.344  61.917  16.339  0.00  0.00    +0.000 C 
ATOM      8  O   ASP A   1      20.400  62.376  16.860  0.00  0.00    +0.000 OA
ATOM      9  OXT ASP A   1      18.369  62.810  15.878  0.00  0.00    +0.000 OA
ENDBRANCH   2   7
BRANCH   2   3
ATOM      3  CB  ASP A   1      18.168  61.852  18.409  0.00  0.00    +0.000 C 
BRANCH   3   4
ATOM      4  CG  ASP A   1      16.725  61.496  18.581  0.00  0.00    +0.000 C 
ATOM      5  OD1 ASP A   1      16.412  60.289  18.810  0.00  0.00    +0.000 OA
ATOM      6  OD2 ASP A   1      15.712  62.229  17.955  0.00  0.00    +0.000 OA
ENDBRANCH   3   4
ENDBRANCH   2   3
TORSDOF 3
ENDMDL
MODEL 3
REMARK VINA RESULT:      -3.9     48.000     49.062
REMARK  Name = 
REMARK  3 active torsions:
REMARK  status: ('A' for Active; 'I' for Inactive)
REMARK    1  A    between atoms: CA_2  and  CB_3
REMARK    2  A    between atoms: CA_2  and  C_7
REMARK    3  A    between atoms: CB_3  and  CG_4
REMARK                            x       y       z     vdW  Elec       q    Type
REMARK                         _______ _______ _______ _____ _____    ______ ____
ROOT
ATOM      1  N   ASP A   1      27.241  84.011 -23.652  0.00  0.00    +0.000 NA
ATOM      2  CA  ASP A   1      26.069  83.188 -24.359  0.00  0.00    +0.000 C 
ENDROOT
BRANCH   2   7
ATOM      7  C   ASP A   1      25.736  82.386 -22.972  0.00  0.00    +0.000 C 
ATOM      8  O   ASP A   1      24.662  81.722 -23.043  0.00  0.00    +0.000 OA
ATOM      9  OXT ASP A   1      25.948  83.221 -21.869  0.00  0.00    +0.000 OA
ENDBRANCH   2   7
BRANCH   2   3
ATOM      3  CB  ASP A   1      27.137  82.009 -24.861  0.00  0.00    +0.000 C 
BRANCH   3   4
ATOM      4  CG  ASP A   1      26.360  81.342 -25.952  0.00  0.00    +0.000 C 
ATOM      5  OD1 ASP A   1      25.435  81.986 -26.532  0.00  0.00    +0.000 OA
ATOM      6  OD2 ASP A   1      26.179  79.955 -25.978  0.00  0.00    +0.000 OA
ENDBRANCH   3   4
ENDBRANCH   2   3
TORSDOF 3
ENDMDL
MODEL 4
REMARK VINA RESULT:      -3.8     28.757     29.975
REMARK  Name = 
REMARK  3 active torsions:
REMARK  status: ('A' for Active; 'I' for Inactive)
REMARK    1  A    between atoms: CA_2  and  CB_3
REMARK    2  A    between atoms: CA_2  and  C_7
REMARK    3  A    between atoms: CB_3  and  CG_4
REMARK                            x       y       z     vdW  Elec       q    Type
REMARK                         _______ _______ _______ _____ _____    ______ ____
ROOT
ATOM      1  N   ASP A   1      18.630  67.743  -9.417  0.00  0.00    +0.000 NA
ATOM      2  CA  ASP A   1      18.442  66.164  -9.262  0.00  0.00    +0.000 C 
ENDROOT
BRANCH   2   7
ATOM      7  C   ASP A   1      19.891  66.021  -8.517  0.00  0.00    +0.000 C 
ATOM      8  O   ASP A   1      20.664  66.988  -8.773  0.00  0.00    +0.000 OA
ATOM      9  OXT ASP A   1      20.373  64.712  -8.647  0.00  0.00    +0.000 OA
ENDBRANCH   2   7
BRANCH   2   3
ATOM      3  CB  ASP A   1      19.113  65.891 -10.764  0.00  0.00    +0.000 C 
BRANCH   3   4
ATOM      4  CG  ASP A   1      17.930  66.069 -11.662  0.00  0.00    +0.000 C 
ATOM      5  OD1 ASP A   1      17.106  65.114 -11.791  0.00  0.00    +0.000 OA
ATOM      6  OD2 ASP A   1      17.972  66.925 -12.767  0.00  0.00    +0.000 OA
ENDBRANCH   3   4
ENDBRANCH   2   3
TORSDOF 3
ENDMDL
MODEL 5
REMARK VINA RESULT:      -3.8     45.761     46.736
REMARK  Name = 
REMARK  3 active torsions:
REMARK  status: ('A' for Active; 'I' for Inactive)
REMARK    1  A    between atoms: CA_2  and  CB_3
REMARK    2  A    between atoms: CA_2  and  C_7
REMARK    3  A    between atoms: CB_3  and  CG_4
REMARK                            x       y       z     vdW  Elec       q    Type
REMARK                         _______ _______ _______ _____ _____    ______ ____
ROOT
ATOM      1  N   ASP A   1      27.440  81.530 -23.981  0.00  0.00    +0.000 NA
ATOM      2  CA  ASP A   1      26.260  80.649 -23.361  0.00  0.00    +0.000 C 
ENDROOT
BRANCH   2   7
ATOM      7  C   ASP A   1      25.440  81.989 -22.905  0.00  0.00    +0.000 C 
ATOM      8  O   ASP A   1      25.256  82.792 -23.865  0.00  0.00    +0.000 OA
ATOM      9  OXT ASP A   1      25.949  82.479 -21.696  0.00  0.00    +0.000 OA
ENDBRANCH   2   7
BRANCH   2   3
ATOM      3  CB  ASP A   1      27.044  80.550 -21.892  0.00  0.00    +0.000 C 
BRANCH   3   4
ATOM      4  CG  ASP A   1      27.149  79.069 -21.704  0.00  0.00    +0.000 C 
ATOM      5  OD1 ASP A   1      26.098  78.364 -21.775  0.00  0.00    +0.000 OA
ATOM      6  OD2 ASP A   1      28.153  78.502 -20.913  0.00  0.00    +0.000 OA
ENDBRANCH   3   4
ENDBRANCH   2   3
TORSDOF 3
ENDMDL
MODEL 6
REMARK VINA RESULT:      -3.7     35.651     36.765
REMARK  Name = 
REMARK  3 active torsions:
REMARK  status: ('A' for Active; 'I' for Inactive)
REMARK    1  A    between atoms: CA_2  and  CB_3
REMARK    2  A    between atoms: CA_2  and  C_7
REMARK    3  A    between atoms: CB_3  and  CG_4
REMARK                            x       y       z     vdW  Elec       q    Type
REMARK                         _______ _______ _______ _____ _____    ______ ____
ROOT
ATOM      1  N   ASP A   1      16.075  61.083 -17.255  0.00  0.00    +0.000 NA
ATOM      2  CA  ASP A   1      16.785  59.697 -16.897  0.00  0.00    +0.000 C 
ENDROOT
BRANCH   2   7
ATOM      7  C   ASP A   1      18.076  60.473 -16.258  0.00  0.00    +0.000 C 
ATOM      8  O   ASP A   1      17.813  61.012 -15.144  0.00  0.00    +0.000 OA
ATOM      9  OXT ASP A   1      18.721  61.230 -17.244  0.00  0.00    +0.000 OA
ENDBRANCH   2   7
BRANCH   2   3
ATOM      3  CB  ASP A   1      17.495  59.620 -18.404  0.00  0.00    +0.000 C 
BRANCH   3   4
ATOM      4  CG  ASP A   1      17.476  58.147 -18.672  0.00  0.00    +0.000 C 
ATOM      5  OD1 ASP A   1      16.730  57.403 -17.967  0.00  0.00    +0.000 OA
ATOM      6  OD2 ASP A   1      18.588  57.486 -19.202  0.00  0.00    +0.000 OA
ENDBRANCH   3   4
ENDBRANCH   2   3
TORSDOF 3
ENDMDL
MODEL 7
REMARK VINA RESULT:      -3.7     35.679     36.717
REMARK  Name = 
REMARK  3 active torsions:
REMARK  status: ('A' for Active; 'I' for Inactive)
REMARK    1  A    between atoms: CA_2  and  CB_3
REMARK    2  A    between atoms: CA_2  and  C_7
REMARK    3  A    between atoms: CB_3  and  CG_4
REMARK                            x       y       z     vdW  Elec       q    Type
REMARK                         _______ _______ _______ _____ _____    ______ ____
ROOT
ATOM      1  N   ASP A   1      15.808  59.503 -18.823  0.00  0.00    +0.000 NA
ATOM      2  CA  ASP A   1      17.307  59.815 -18.366  0.00  0.00    +0.000 C 
ENDROOT
BRANCH   2   7
ATOM      7  C   ASP A   1      17.615  58.224 -18.136  0.00  0.00    +0.000 C 
ATOM      8  O   ASP A   1      18.742  57.880 -18.595  0.00  0.00    +0.000 OA
ATOM      9  OXT ASP A   1      16.486  57.462 -18.463  0.00  0.00    +0.000 OA
ENDBRANCH   2   7
BRANCH   2   3
ATOM      3  CB  ASP A   1      16.829  60.018 -16.780  0.00  0.00    +0.000 C 
BRANCH   3   4
ATOM      4  CG  ASP A   1      18.070  60.581 -16.161  0.00  0.00    +0.000 C 
ATOM      5  OD1 ASP A   1      18.032  60.971 -14.955  0.00  0.00    +0.000 OA
ATOM      6  OD2 ASP A   1      19.043  61.227 -16.929  0.00  0.00    +0.000 OA
ENDBRANCH   3   4
ENDBRANCH   2   3
TORSDOF 3
ENDMDL
MODEL 8
REMARK VINA RESULT:      -3.7      3.011      4.047
REMARK  Name = 
REMARK  3 active torsions:
REMARK  status: ('A' for Active; 'I' for Inactive)
REMARK    1  A    between atoms: CA_2  and  CB_3
REMARK    2  A    between atoms: CA_2  and  C_7
REMARK    3  A    between atoms: CB_3  and  CG_4
REMARK                            x       y       z     vdW  Elec       q    Type
REMARK                         _______ _______ _______ _____ _____    ______ ____
ROOT
ATOM      1  N   ASP A   1      18.886  63.419  15.454  0.00  0.00    +0.000 NA
ATOM      2  CA  ASP A   1      19.312  62.215  16.414  0.00  0.00    +0.000 C 
ENDROOT
BRANCH   2   7
ATOM      7  C   ASP A   1      19.774  61.302  15.137  0.00  0.00    +0.000 C 
ATOM      8  O   ASP A   1      21.022  61.103  15.111  0.00  0.00    +0.000 OA
ATOM      9  OXT ASP A   1      19.131  61.741  13.972  0.00  0.00    +0.000 OA
ENDBRANCH   2   7
BRANCH   2   3
ATOM      3  CB  ASP A   1      17.767  61.587  16.388  0.00  0.00    +0.000 C 
BRANCH   3   4
ATOM      4  CG  ASP A   1      17.590  61.159  17.811  0.00  0.00    +0.000 C 
ATOM      5  OD1 ASP A   1      18.445  60.380  18.329  0.00  0.00    +0.000 OA
ATOM      6  OD2 ASP A   1      16.323  61.072  18.396  0.00  0.00    +0.000 OA
ENDBRANCH   3   4
ENDBRANCH   2   3
TORSDOF 3
ENDMDL
MODEL 9
REMARK VINA RESULT:      -3.5      6.494      7.102
REMARK  Name = 
REMARK  3 active torsions:
REMARK  status: ('A' for Active; 'I' for Inactive)
REMARK    1  A    between atoms: CA_2  and  CB_3
REMARK    2  A    between atoms: CA_2  and  C_7
REMARK    3  A    between atoms: CB_3  and  CG_4
REMARK                            x       y       z     vdW  Elec       q    Type
REMARK                         _______ _______ _______ _____ _____    ______ ____
ROOT
ATOM      1  N   ASP A   1      12.941  58.544  23.709  0.00  0.00    +0.000 NA
ATOM      2  CA  ASP A   1      14.272  57.879  24.292  0.00  0.00    +0.000 C 
ENDROOT
BRANCH   2   7
ATOM      7  C   ASP A   1      13.907  58.374  25.808  0.00  0.00    +0.000 C 
ATOM      8  O   ASP A   1      12.914  59.157  25.835  0.00  0.00    +0.000 OA
ATOM      9  OXT ASP A   1      15.075  58.734  26.492  0.00  0.00    +0.000 OA
ENDBRANCH   2   7
BRANCH   2   3
ATOM      3  CB  ASP A   1      15.152  59.261  23.982  0.00  0.00    +0.000 C 
BRANCH   3   4
ATOM      4  CG  ASP A   1      16.191  58.752  23.033  0.00  0.00    +0.000 C 
ATOM      5  OD1 ASP A   1      16.989  59.577  22.494  0.00  0.00    +0.000 OA
ATOM      6  OD2 ASP A   1      15.986  57.593  22.277  0.00  0.00    +0.000 OA
ENDBRANCH   3   4
ENDBRANCH   2   3
TORSDOF 3
ENDMDL
MODEL 10
REMARK VINA RESULT:      -3.4     34.158     35.528
REMARK  Name = 
REMARK  3 active torsions:
REMARK  status: ('A' for Active; 'I' for Inactive)
REMARK    1  A    between atoms: CA_2  and  CB_3
REMARK    2  A    between atoms: CA_2  and  C_7
REMARK    3  A    between atoms: CB_3  and  CG_4
REMARK                            x       y       z     vdW  Elec       q    Type
REMARK                         _______ _______ _______ _____ _____    ______ ____
ROOT
ATOM      1  N   ASP A   1       4.299  37.922  -4.208  0.00  0.00    +0.000 NA
ATOM      2  CA  ASP A   1       5.037  38.624  -5.439  0.00  0.00    +0.000 C 
ENDROOT
BRANCH   2   7
ATOM      7  C   ASP A   1       6.064  39.406  -4.435  0.00  0.00    +0.000 C 
ATOM      8  O   ASP A   1       7.261  39.019  -4.570  0.00  0.00    +0.000 OA
ATOM      9  OXT ASP A   1       5.517  39.483  -3.148  0.00  0.00    +0.000 OA
ENDBRANCH   2   7
BRANCH   2   3
ATOM      3  CB  ASP A   1       3.953  39.892  -5.424  0.00  0.00    +0.000 C 
BRANCH   3   4
ATOM      4  CG  ASP A   1       3.829  40.201  -6.883  0.00  0.00    +0.000 C 
ATOM      5  OD1 ASP A   1       4.588  39.604  -7.705  0.00  0.00    +0.000 OA
ATOM      6  OD2 ASP A   1       3.389  41.450  -7.331  0.00  0.00    +0.000 OA
ENDBRANCH   3   4
ENDBRANCH   2   3
TORSDOF 3
ENDMDL
