MODEL 1
REMARK VINA RESULT:      -4.9      0.000      0.000
REMARK  Name = 
REMARK  7 active torsions:
REMARK  status: ('A' for Active; 'I' for Inactive)
REMARK    1  A    between atoms: CA_2  and  CB_3
REMARK    2  A    between atoms: CA_2  and  C_7
REMARK    3  A    between atoms: CB_3  and  CG_4
REMARK    4  A    between atoms: N_9  and  CA_10
REMARK    5  A    between atoms: CA_10  and  CB_11
REMARK    6  A    between atoms: CA_10  and  C_15
REMARK    7  A    between atoms: CB_11  and  CG_12
REMARK                            x       y       z     vdW  Elec       q    Type
REMARK                         _______ _______ _______ _____ _____    ______ ____
ROOT
ATOM      7  C   ASP A   1       9.399  58.390   7.654  0.00  0.00    +0.000 C 
ATOM      8  O   ASP A   1       9.250  58.119   8.870  0.00  0.00    +0.000 OA
ATOM      9  N   ASP A   2      10.662  58.634   7.263  0.00  0.00    +0.000 NA
ENDROOT
BRANCH   7   2
ATOM      1  N   ASP A   1       8.929  59.355   5.627  0.00  0.00    +0.000 NA
ATOM      2  CA  ASP A   1       8.088  58.831   6.856  0.00  0.00    +0.000 C 
BRANCH   2   3
ATOM      3  CB  ASP A   1       8.002  60.337   7.513  0.00  0.00    +0.000 C 
BRANCH   3   4
ATOM      4  CG  ASP A   1       6.567  60.462   7.855  0.00  0.00    +0.000 C 
ATOM      5  OD1 ASP A   1       5.663  60.710   7.004  0.00  0.00    +0.000 OA
ATOM      6  OD2 ASP A   1       6.121  60.081   9.104  0.00  0.00    +0.000 OA
ENDBRANCH   3   4
ENDBRANCH   2   3
ENDBRANCH   7   2
BRANCH   9  10
ATOM     10  CA  ASP A   2      11.832  57.676   7.691  0.00  0.00    +0.000 C 
BRANCH  10  15
ATOM     15  C   ASP A   2      11.377  56.539   6.636  0.00  0.00    +0.000 C 
ATOM     16  O   ASP A   2      11.546  55.393   7.159  0.00  0.00    +0.000 OA
ATOM     17  OXT ASP A   2      11.974  56.628   5.373  0.00  0.00    +0.000 OA
ENDBRANCH  10  15
BRANCH  10  11
ATOM     11  CB  ASP A   2      12.964  58.296   6.669  0.00  0.00    +0.000 C 
BRANCH  11  12
ATOM     12  CG  ASP A   2      13.421  59.541   7.298  0.00  0.00    +0.000 C 
ATOM     13  OD1 ASP A   2      13.974  59.603   8.431  0.00  0.00    +0.000 OA
ATOM     14  OD2 ASP A   2      13.461  60.692   6.544  0.00  0.00    +0.000 OA
ENDBRANCH  11  12
ENDBRANCH  10  11
ENDBRANCH   9  10
TORSDOF 7
ENDMDL
MODEL 2
REMARK VINA RESULT:      -4.8     12.752     13.784
REMARK  Name = 
REMARK  7 active torsions:
REMARK  status: ('A' for Active; 'I' for Inactive)
REMARK    1  A    between atoms: CA_2  and  CB_3
REMARK    2  A    between atoms: CA_2  and  C_7
REMARK    3  A    between atoms: CB_3  and  CG_4
REMARK    4  A    between atoms: N_9  and  CA_10
REMARK    5  A    between atoms: CA_10  and  CB_11
REMARK    6  A    between atoms: CA_10  and  C_15
REMARK    7  A    between atoms: CB_11  and  CG_12
REMARK                            x       y       z     vdW  Elec       q    Type
REMARK                         _______ _______ _______ _____ _____    ______ ____
ROOT
ATOM      7  C   ASP A   1      19.341  63.352  16.190  0.00  0.00    +0.000 C 
ATOM      8  O   ASP A   1      19.237  64.005  17.255  0.00  0.00    +0.000 OA
ATOM      9  N   ASP A   2      19.097  64.038  15.060  0.00  0.00    +0.000 NA
ENDROOT
BRANCH   7   2
ATOM      1  N   ASP A   1      19.124  61.565  14.767  0.00  0.00    +0.000 NA
ATOM      2  CA  ASP A   1      19.314  61.761  16.322  0.00  0.00    +0.000 C 
BRANCH   2   3
ATOM      3  CB  ASP A   1      17.694  61.654  16.592  0.00  0.00    +0.000 C 
BRANCH   3   4
ATOM      4  CG  ASP A   1      17.625  60.998  17.917  0.00  0.00    +0.000 C 
ATOM      5  OD1 ASP A   1      16.542  60.657  18.476  0.00  0.00    +0.000 OA
ATOM      6  OD2 ASP A   1      18.776  60.516  18.506  0.00  0.00    +0.000 OA
ENDBRANCH   3   4
ENDBRANCH   2   3
ENDBRANCH   7   2
BRANCH   9  10
ATOM     10  CA  ASP A   2      19.743  65.452  14.825  0.00  0.00    +0.000 C 
BRANCH  10  15
ATOM     15  C   ASP A   2      20.803  64.864  13.755  0.00  0.00    +0.000 C 
ATOM     16  O   ASP A   2      21.928  64.709  14.325  0.00  0.00    +0.000 OA
ATOM     17  OXT ASP A   2      20.916  65.596  12.569  0.00  0.00    +0.000 OA
ENDBRANCH  10  15
BRANCH  10  11
ATOM     11  CB  ASP A   2      18.697  65.942  13.652  0.00  0.00    +0.000 C 
BRANCH  11  12
ATOM     12  CG  ASP A   2      18.047  67.146  14.183  0.00  0.00    +0.000 C 
ATOM     13  OD1 ASP A   2      18.505  67.840  15.132  0.00  0.00    +0.000 OA
ATOM     14  OD2 ASP A   2      16.995  67.696  13.485  0.00  0.00    +0.000 OA
ENDBRANCH  11  12
ENDBRANCH  10  11
ENDBRANCH   9  10
TORSDOF 7
ENDMDL
MODEL 3
REMARK VINA RESULT:      -4.8     13.045     14.564
REMARK  Name = 
REMARK  7 active torsions:
REMARK  status: ('A' for Active; 'I' for Inactive)
REMARK    1  A    between atoms: CA_2  and  CB_3
REMARK    2  A    between atoms: CA_2  and  C_7
REMARK    3  A    between atoms: CB_3  and  CG_4
REMARK    4  A    between atoms: N_9  and  CA_10
REMARK    5  A    between atoms: CA_10  and  CB_11
REMARK    6  A    between atoms: CA_10  and  C_15
REMARK    7  A    between atoms: CB_11  and  CG_12
REMARK                            x       y       z     vdW  Elec       q    Type
REMARK                         _______ _______ _______ _____ _____    ______ ____
ROOT
ATOM      7  C   ASP A   1      19.495  62.966  16.466  0.00  0.00    +0.000 C 
ATOM      8  O   ASP A   1      18.417  62.752  15.863  0.00  0.00    +0.000 OA
ATOM      9  N   ASP A   2      19.538  62.556  17.746  0.00  0.00    +0.000 NA
ENDROOT
BRANCH   7   2
ATOM      1  N   ASP A   1      20.360  65.006  17.060  0.00  0.00    +0.000 NA
ATOM      2  CA  ASP A   1      20.476  64.044  15.814  0.00  0.00    +0.000 C 
BRANCH   2   3
ATOM      3  CB  ASP A   1      19.298  64.859  15.003  0.00  0.00    +0.000 C 
BRANCH   3   4
ATOM      4  CG  ASP A   1      19.792  64.845  13.608  0.00  0.00    +0.000 C 
ATOM      5  OD1 ASP A   1      19.075  64.530  12.613  0.00  0.00    +0.000 OA
ATOM      6  OD2 ASP A   1      21.016  65.406  13.306  0.00  0.00    +0.000 OA
ENDBRANCH   3   4
ENDBRANCH   2   3
ENDBRANCH   7   2
BRANCH   9  10
ATOM     10  CA  ASP A   2      19.038  61.120  18.144  0.00  0.00    +0.000 C 
BRANCH  10  15
ATOM     15  C   ASP A   2      20.136  60.993  19.324  0.00  0.00    +0.000 C 
ATOM     16  O   ASP A   2      21.082  60.240  18.933  0.00  0.00    +0.000 OA
ATOM     17  OXT ASP A   2      19.630  60.592  20.565  0.00  0.00    +0.000 OA
ENDBRANCH  10  15
BRANCH  10  11
ATOM     11  CB  ASP A   2      17.856  61.615  19.178  0.00  0.00    +0.000 C 
BRANCH  11  12
ATOM     12  CG  ASP A   2      16.592  61.205  18.555  0.00  0.00    +0.000 C 
ATOM     13  OD1 ASP A   2      16.071  60.064  18.691  0.00  0.00    +0.000 OA
ATOM     14  OD2 ASP A   2      15.801  62.164  17.964  0.00  0.00    +0.000 OA
ENDBRANCH  11  12
ENDBRANCH  10  11
ENDBRANCH   9  10
TORSDOF 7
ENDMDL
MODEL 4
REMARK VINA RESULT:      -4.8     17.554     19.850
REMARK  Name = 
REMARK  7 active torsions:
REMARK  status: ('A' for Active; 'I' for Inactive)
REMARK    1  A    between atoms: CA_2  and  CB_3
REMARK    2  A    between atoms: CA_2  and  C_7
REMARK    3  A    between atoms: CB_3  and  CG_4
REMARK    4  A    between atoms: N_9  and  CA_10
REMARK    5  A    between atoms: CA_10  and  CB_11
REMARK    6  A    between atoms: CA_10  and  C_15
REMARK    7  A    between atoms: CB_11  and  CG_12
REMARK                            x       y       z     vdW  Elec       q    Type
REMARK                         _______ _______ _______ _____ _____    ______ ____
ROOT
ATOM      7  C   ASP A   1      23.890  57.630  -5.480  0.00  0.00    +0.000 C 
ATOM      8  O   ASP A   1      24.512  58.501  -4.826  0.00  0.00    +0.000 OA
ATOM      9  N   ASP A   2      24.542  57.122  -6.540  0.00  0.00    +0.000 NA
ENDROOT
BRANCH   7   2
ATOM      1  N   ASP A   1      22.308  58.876  -4.380  0.00  0.00    +0.000 NA
ATOM      2  CA  ASP A   1      22.311  57.560  -5.253  0.00  0.00    +0.000 C 
BRANCH   2   3
ATOM      3  CB  ASP A   1      22.386  56.605  -3.915  0.00  0.00    +0.000 C 
BRANCH   3   4
ATOM      4  CG  ASP A   1      22.248  55.243  -4.479  0.00  0.00    +0.000 C 
ATOM      5  OD1 ASP A   1      22.077  55.008  -5.711  0.00  0.00    +0.000 OA
ATOM      6  OD2 ASP A   1      22.534  54.143  -3.697  0.00  0.00    +0.000 OA
ENDBRANCH   3   4
ENDBRANCH   2   3
ENDBRANCH   7   2
BRANCH   9  10
ATOM     10  CA  ASP A   2      26.037  56.653  -6.411  0.00  0.00    +0.000 C 
BRANCH  10  15
ATOM     15  C   ASP A   2      25.723  55.234  -7.119  0.00  0.00    +0.000 C 
ATOM     16  O   ASP A   2      24.894  55.415  -8.065  0.00  0.00    +0.000 OA
ATOM     17  OXT ASP A   2      25.311  54.216  -6.252  0.00  0.00    +0.000 OA
ENDBRANCH  10  15
BRANCH  10  11
ATOM     11  CB  ASP A   2      26.567  57.335  -7.813  0.00  0.00    +0.000 C 
BRANCH  11  12
ATOM     12  CG  ASP A   2      27.351  58.507  -7.408  0.00  0.00    +0.000 C 
ATOM     13  OD1 ASP A   2      28.399  58.453  -6.707  0.00  0.00    +0.000 OA
ATOM     14  OD2 ASP A   2      27.076  59.724  -7.989  0.00  0.00    +0.000 OA
ENDBRANCH  11  12
ENDBRANCH  10  11
ENDBRANCH   9  10
TORSDOF 7
ENDMDL
MODEL 5
REMARK VINA RESULT:      -4.7     13.496     15.821
REMARK  Name = 
REMARK  7 active torsions:
REMARK  status: ('A' for Active; 'I' for Inactive)
REMARK    1  A    between atoms: CA_2  and  CB_3
REMARK    2  A    between atoms: CA_2  and  C_7
REMARK    3  A    between atoms: CB_3  and  CG_4
REMARK    4  A    between atoms: N_9  and  CA_10
REMARK    5  A    between atoms: CA_10  and  CB_11
REMARK    6  A    between atoms: CA_10  and  C_15
REMARK    7  A    between atoms: CB_11  and  CG_12
REMARK                            x       y       z     vdW  Elec       q    Type
REMARK                         _______ _______ _______ _____ _____    ______ ____
ROOT
ATOM      7  C   ASP A   1      19.841  61.016  20.002  0.00  0.00    +0.000 C 
ATOM      8  O   ASP A   1      20.749  60.405  19.389  0.00  0.00    +0.000 OA
ATOM      9  N   ASP A   2      18.890  61.571  19.231  0.00  0.00    +0.000 NA
ENDROOT
BRANCH   7   2
ATOM      1  N   ASP A   1      19.253  60.256  22.085  0.00  0.00    +0.000 NA
ATOM      2  CA  ASP A   1      20.151  61.423  21.515  0.00  0.00    +0.000 C 
BRANCH   2   3
ATOM      3  CB  ASP A   1      18.920  62.508  21.641  0.00  0.00    +0.000 C 
BRANCH   3   4
ATOM      4  CG  ASP A   1      19.488  63.543  22.535  0.00  0.00    +0.000 C 
ATOM      5  OD1 ASP A   1      18.783  64.325  23.237  0.00  0.00    +0.000 OA
ATOM      6  OD2 ASP A   1      20.838  63.543  22.817  0.00  0.00    +0.000 OA
ENDBRANCH   3   4
ENDBRANCH   2   3
ENDBRANCH   7   2
BRANCH   9  10
ATOM     10  CA  ASP A   2      18.221  60.750  18.070  0.00  0.00    +0.000 C 
BRANCH  10  15
ATOM     15  C   ASP A   2      16.732  61.069  18.612  0.00  0.00    +0.000 C 
ATOM     16  O   ASP A   2      16.052  59.995  18.619  0.00  0.00    +0.000 OA
ATOM     17  OXT ASP A   2      16.066  62.103  17.946  0.00  0.00    +0.000 OA
ENDBRANCH  10  15
BRANCH  10  11
ATOM     11  CB  ASP A   2      18.179  61.979  16.974  0.00  0.00    +0.000 C 
BRANCH  11  12
ATOM     12  CG  ASP A   2      19.086  61.573  15.894  0.00  0.00    +0.000 C 
ATOM     13  OD1 ASP A   2      18.782  61.585  14.669  0.00  0.00    +0.000 OA
ATOM     14  OD2 ASP A   2      20.417  61.373  16.184  0.00  0.00    +0.000 OA
ENDBRANCH  11  12
ENDBRANCH  10  11
ENDBRANCH   9  10
TORSDOF 7
ENDMDL
MODEL 6
REMARK VINA RESULT:      -4.7     26.723     29.652
REMARK  Name = 
REMARK  7 active torsions:
REMARK  status: ('A' for Active; 'I' for Inactive)
REMARK    1  A    between atoms: CA_2  and  CB_3
REMARK    2  A    between atoms: CA_2  and  C_7
REMARK    3  A    between atoms: CB_3  and  CG_4
REMARK    4  A    between atoms: N_9  and  CA_10
REMARK    5  A    between atoms: CA_10  and  CB_11
REMARK    6  A    between atoms: CA_10  and  C_15
REMARK    7  A    between atoms: CB_11  and  CG_12
REMARK                            x       y       z     vdW  Elec       q    Type
REMARK                         _______ _______ _______ _____ _____    ______ ____
ROOT
ATOM      7  C   ASP A   1     -10.266  72.819  23.300  0.00  0.00    +0.000 C 
ATOM      8  O   ASP A   1     -10.260  73.308  24.455  0.00  0.00    +0.000 OA
ATOM      9  N   ASP A   2     -10.694  71.548  23.209  0.00  0.00    +0.000 NA
ENDROOT
BRANCH   7   2
ATOM      1  N   ASP A   1     -10.583  74.529  21.803  0.00  0.00    +0.000 NA
ATOM      2  CA  ASP A   1      -9.389  73.574  22.200  0.00  0.00    +0.000 C 
BRANCH   2   3
ATOM      3  CB  ASP A   1      -9.741  72.532  20.976  0.00  0.00    +0.000 C 
BRANCH   3   4
ATOM      4  CG  ASP A   1      -8.599  72.717  20.052  0.00  0.00    +0.000 C 
ATOM      5  OD1 ASP A   1      -7.679  73.567  20.236  0.00  0.00    +0.000 OA
ATOM      6  OD2 ASP A   1      -8.367  71.795  19.052  0.00  0.00    +0.000 OA
ENDBRANCH   3   4
ENDBRANCH   2   3
ENDBRANCH   7   2
BRANCH   9  10
ATOM     10  CA  ASP A   2     -12.011  71.092  23.935  0.00  0.00    +0.000 C 
BRANCH  10  15
ATOM     15  C   ASP A   2     -12.947  71.860  22.863  0.00  0.00    +0.000 C 
ATOM     16  O   ASP A   2     -14.112  71.997  23.350  0.00  0.00    +0.000 OA
ATOM     17  OXT ASP A   2     -12.979  71.288  21.587  0.00  0.00    +0.000 OA
ENDBRANCH  10  15
BRANCH  10  11
ATOM     11  CB  ASP A   2     -12.159  69.647  23.160  0.00  0.00    +0.000 C 
BRANCH  11  12
ATOM     12  CG  ASP A   2     -12.512  68.676  24.203  0.00  0.00    +0.000 C 
ATOM     13  OD1 ASP A   2     -11.741  68.329  25.140  0.00  0.00    +0.000 OA
ATOM     14  OD2 ASP A   2     -13.822  68.270  24.319  0.00  0.00    +0.000 OA
ENDBRANCH  11  12
ENDBRANCH  10  11
ENDBRANCH   9  10
TORSDOF 7
ENDMDL
MODEL 7
REMARK VINA RESULT:      -4.7      2.420      6.211
REMARK  Name = 
REMARK  7 active torsions:
REMARK  status: ('A' for Active; 'I' for Inactive)
REMARK    1  A    between atoms: CA_2  and  CB_3
REMARK    2  A    between atoms: CA_2  and  C_7
REMARK    3  A    between atoms: CB_3  and  CG_4
REMARK    4  A    between atoms: N_9  and  CA_10
REMARK    5  A    between atoms: CA_10  and  CB_11
REMARK    6  A    between atoms: CA_10  and  C_15
REMARK    7  A    between atoms: CB_11  and  CG_12
REMARK                            x       y       z     vdW  Elec       q    Type
REMARK                         _______ _______ _______ _____ _____    ______ ____
ROOT
ATOM      7  C   ASP A   1       9.398  57.891   8.082  0.00  0.00    +0.000 C 
ATOM      8  O   ASP A   1       9.859  57.106   8.944  0.00  0.00    +0.000 OA
ATOM      9  N   ASP A   2       8.058  57.993   8.043  0.00  0.00    +0.000 NA
ENDROOT
BRANCH   7   2
ATOM      1  N   ASP A   1       9.273  59.174   6.184  0.00  0.00    +0.000 NA
ATOM      2  CA  ASP A   1      10.386  58.312   6.899  0.00  0.00    +0.000 C 
BRANCH   2   3
ATOM      3  CB  ASP A   1      10.062  57.005   5.953  0.00  0.00    +0.000 C 
BRANCH   3   4
ATOM      4  CG  ASP A   1      11.350  56.274   5.954  0.00  0.00    +0.000 C 
ATOM      5  OD1 ASP A   1      12.468  56.824   5.729  0.00  0.00    +0.000 OA
ATOM      6  OD2 ASP A   1      11.407  54.982   6.435  0.00  0.00    +0.000 OA
ENDBRANCH   3   4
ENDBRANCH   2   3
ENDBRANCH   7   2
BRANCH   9  10
ATOM     10  CA  ASP A   2       7.232  58.188   9.366  0.00  0.00    +0.000 C 
BRANCH  10  15
ATOM     15  C   ASP A   2       6.159  59.150   8.632  0.00  0.00    +0.000 C 
ATOM     16  O   ASP A   2       5.822  58.629   7.523  0.00  0.00    +0.000 OA
ATOM     17  OXT ASP A   2       6.561  60.482   8.482  0.00  0.00    +0.000 OA
ENDBRANCH  10  15
BRANCH  10  11
ATOM     11  CB  ASP A   2       6.284  56.853   9.191  0.00  0.00    +0.000 C 
BRANCH  11  12
ATOM     12  CG  ASP A   2       6.450  56.089  10.434  0.00  0.00    +0.000 C 
ATOM     13  OD1 ASP A   2       7.484  55.428  10.729  0.00  0.00    +0.000 OA
ATOM     14  OD2 ASP A   2       5.534  56.262  11.447  0.00  0.00    +0.000 OA
ENDBRANCH  11  12
ENDBRANCH  10  11
ENDBRANCH   9  10
TORSDOF 7
ENDMDL
MODEL 8
REMARK VINA RESULT:      -4.6     19.204     21.625
REMARK  Name = 
REMARK  7 active torsions:
REMARK  status: ('A' for Active; 'I' for Inactive)
REMARK    1  A    between atoms: CA_2  and  CB_3
REMARK    2  A    between atoms: CA_2  and  C_7
REMARK    3  A    between atoms: CB_3  and  CG_4
REMARK    4  A    between atoms: N_9  and  CA_10
REMARK    5  A    between atoms: CA_10  and  CB_11
REMARK    6  A    between atoms: CA_10  and  C_15
REMARK    7  A    between atoms: CB_11  and  CG_12
REMARK                            x       y       z     vdW  Elec       q    Type
REMARK                         _______ _______ _______ _____ _____    ______ ____
ROOT
ATOM      7  C   ASP A   1      25.248  56.695  -6.726  0.00  0.00    +0.000 C 
ATOM      8  O   ASP A   1      25.180  55.769  -7.569  0.00  0.00    +0.000 OA
ATOM      9  N   ASP A   2      26.429  57.335  -6.659  0.00  0.00    +0.000 NA
ENDROOT
BRANCH   7   2
ATOM      1  N   ASP A   1      25.168  57.151  -4.479  0.00  0.00    +0.000 NA
ATOM      2  CA  ASP A   1      24.132  56.705  -5.584  0.00  0.00    +0.000 C 
BRANCH   2   3
ATOM      3  CB  ASP A   1      24.302  55.118  -5.184  0.00  0.00    +0.000 C 
BRANCH   3   4
ATOM      4  CG  ASP A   1      22.903  54.634  -5.166  0.00  0.00    +0.000 C 
ATOM      5  OD1 ASP A   1      22.224  54.411  -6.211  0.00  0.00    +0.000 OA
ATOM      6  OD2 ASP A   1      22.348  54.180  -3.987  0.00  0.00    +0.000 OA
ENDBRANCH   3   4
ENDBRANCH   2   3
ENDBRANCH   7   2
BRANCH   9  10
ATOM     10  CA  ASP A   2      27.153  57.818  -7.968  0.00  0.00    +0.000 C 
BRANCH  10  15
ATOM     15  C   ASP A   2      27.420  59.291  -7.357  0.00  0.00    +0.000 C 
ATOM     16  O   ASP A   2      26.323  59.932  -7.321  0.00  0.00    +0.000 OA
ATOM     17  OXT ASP A   2      28.430  60.022  -7.991  0.00  0.00    +0.000 OA
ENDBRANCH  10  15
BRANCH  10  11
ATOM     11  CB  ASP A   2      28.654  57.280  -7.559  0.00  0.00    +0.000 C 
BRANCH  11  12
ATOM     12  CG  ASP A   2      28.908  56.125  -8.428  0.00  0.00    +0.000 C 
ATOM     13  OD1 ASP A   2      28.459  54.965  -8.216  0.00  0.00    +0.000 OA
ATOM     14  OD2 ASP A   2      29.481  56.335  -9.662  0.00  0.00    +0.000 OA
ENDBRANCH  11  12
ENDBRANCH  10  11
ENDBRANCH   9  10
TORSDOF 7
ENDMDL
MODEL 9
REMARK VINA RESULT:      -4.6      1.668      5.410
REMARK  Name = 
REMARK  7 active torsions:
REMARK  status: ('A' for Active; 'I' for Inactive)
REMARK    1  A    between atoms: CA_2  and  CB_3
REMARK    2  A    between atoms: CA_2  and  C_7
REMARK    3  A    between atoms: CB_3  and  CG_4
REMARK    4  A    between atoms: N_9  and  CA_10
REMARK    5  A    between atoms: CA_10  and  CB_11
REMARK    6  A    between atoms: CA_10  and  C_15
REMARK    7  A    between atoms: CB_11  and  CG_12
REMARK                            x       y       z     vdW  Elec       q    Type
REMARK                         _______ _______ _______ _____ _____    ______ ____
ROOT
ATOM      7  C   ASP A   1      10.966  58.691   5.709  0.00  0.00    +0.000 C 
ATOM      8  O   ASP A   1      10.392  59.274   4.758  0.00  0.00    +0.000 OA
ATOM      9  N   ASP A   2      10.262  58.610   6.852  0.00  0.00    +0.000 NA
ENDROOT
BRANCH   7   2
ATOM      1  N   ASP A   1      12.450  56.947   5.573  0.00  0.00    +0.000 NA
ATOM      2  CA  ASP A   1      12.549  58.522   5.591  0.00  0.00    +0.000 C 
BRANCH   2   3
ATOM      3  CB  ASP A   1      12.830  58.543   7.213  0.00  0.00    +0.000 C 
BRANCH   3   4
ATOM      4  CG  ASP A   1      13.698  59.731   7.378  0.00  0.00    +0.000 C 
ATOM      5  OD1 ASP A   1      14.466  59.905   8.370  0.00  0.00    +0.000 OA
ATOM      6  OD2 ASP A   1      13.877  60.604   6.325  0.00  0.00    +0.000 OA
ENDBRANCH   3   4
ENDBRANCH   2   3
ENDBRANCH   7   2
BRANCH   9  10
ATOM     10  CA  ASP A   2       8.760  58.147   6.837  0.00  0.00    +0.000 C 
BRANCH  10  15
ATOM     15  C   ASP A   2       9.102  56.786   7.639  0.00  0.00    +0.000 C 
ATOM     16  O   ASP A   2       8.823  55.788   6.905  0.00  0.00    +0.000 OA
ATOM     17  OXT ASP A   2       8.518  56.681   8.906  0.00  0.00    +0.000 OA
ENDBRANCH  10  15
BRANCH  10  11
ATOM     11  CB  ASP A   2       8.306  58.943   8.205  0.00  0.00    +0.000 C 
BRANCH  11  12
ATOM     12  CG  ASP A   2       7.543  60.109   7.745  0.00  0.00    +0.000 C 
ATOM     13  OD1 ASP A   2       7.614  60.591   6.581  0.00  0.00    +0.000 OA
ATOM     14  OD2 ASP A   2       6.524  60.591   8.537  0.00  0.00    +0.000 OA
ENDBRANCH  11  12
ENDBRANCH  10  11
ENDBRANCH   9  10
TORSDOF 7
ENDMDL
MODEL 10
REMARK VINA RESULT:      -4.6     13.179     15.474
REMARK  Name = 
REMARK  7 active torsions:
REMARK  status: ('A' for Active; 'I' for Inactive)
REMARK    1  A    between atoms: CA_2  and  CB_3
REMARK    2  A    between atoms: CA_2  and  C_7
REMARK    3  A    between atoms: CB_3  and  CG_4
REMARK    4  A    between atoms: N_9  and  CA_10
REMARK    5  A    between atoms: CA_10  and  CB_11
REMARK    6  A    between atoms: CA_10  and  C_15
REMARK    7  A    between atoms: CB_11  and  CG_12
REMARK                            x       y       z     vdW  Elec       q    Type
REMARK                         _______ _______ _______ _____ _____    ______ ____
ROOT
ATOM      7  C   ASP A   1      19.684  61.346  19.719  0.00  0.00    +0.000 C 
ATOM      8  O   ASP A   1      20.579  60.507  19.459  0.00  0.00    +0.000 OA
ATOM      9  N   ASP A   2      18.971  61.781  18.665  0.00  0.00    +0.000 NA
ENDROOT
BRANCH   7   2
ATOM      1  N   ASP A   1      21.365  62.190  21.033  0.00  0.00    +0.000 NA
ATOM      2  CA  ASP A   1      19.792  62.093  21.126  0.00  0.00    +0.000 C 
BRANCH   2   3
ATOM      3  CB  ASP A   1      19.873  60.719  22.028  0.00  0.00    +0.000 C 
BRANCH   3   4
ATOM      4  CG  ASP A   1      18.462  60.501  22.419  0.00  0.00    +0.000 C 
ATOM      5  OD1 ASP A   1      17.974  59.361  22.678  0.00  0.00    +0.000 OA
ATOM      6  OD2 ASP A   1      17.664  61.578  22.744  0.00  0.00    +0.000 OA
ENDBRANCH   3   4
ENDBRANCH   2   3
ENDBRANCH   7   2
BRANCH   9  10
ATOM     10  CA  ASP A   2      18.391  60.765  17.616  0.00  0.00    +0.000 C 
BRANCH  10  15
ATOM     15  C   ASP A   2      16.868  61.059  18.072  0.00  0.00    +0.000 C 
ATOM     16  O   ASP A   2      16.726  62.307  18.268  0.00  0.00    +0.000 OA
ATOM     17  OXT ASP A   2      16.419  60.306  19.163  0.00  0.00    +0.000 OA
ENDBRANCH  10  15
BRANCH  10  11
ATOM     11  CB  ASP A   2      18.311  61.823  16.357  0.00  0.00    +0.000 C 
BRANCH  11  12
ATOM     12  CG  ASP A   2      19.355  61.395  15.418  0.00  0.00    +0.000 C 
ATOM     13  OD1 ASP A   2      20.310  60.628  15.719  0.00  0.00    +0.000 OA
ATOM     14  OD2 ASP A   2      19.187  61.652  14.076  0.00  0.00    +0.000 OA
ENDBRANCH  11  12
ENDBRANCH  10  11
ENDBRANCH   9  10
TORSDOF 7
ENDMDL
