MODEL 1
REMARK VINA RESULT:      -4.8      0.000      0.000
REMARK  Name = 
REMARK  5 active torsions:
REMARK  status: ('A' for Active; 'I' for Inactive)
REMARK    1  A    between atoms: CA_2  and  N_3
REMARK    2  A    between atoms: CA_2  and  C_12
REMARK    3  A    between atoms: C_4  and  CA_6
REMARK    4  A    between atoms: CA_6  and  CB_8
REMARK    5  A    between atoms: CB_8  and  CG_9
REMARK                            x       y       z     vdW  Elec       q    Type
REMARK                         _______ _______ _______ _____ _____    ______ ____
ROOT
ATOM      3  N   ALA A   2      11.203  57.753   6.603  0.00  0.00    +0.000 NA
ATOM      4  C   ASP A   1      10.616  56.473   6.762  0.00  0.00    +0.000 C 
ATOM      5  O   ASP A   1      11.437  55.530   7.001  0.00  0.00    +0.000 OA
ENDROOT
BRANCH   3   2
ATOM      1  CB  ALA A   2      13.120  58.718   7.528  0.00  0.00    +0.000 C 
ATOM      2  CA  ALA A   2      12.748  57.737   6.243  0.00  0.00    +0.000 C 
BRANCH   2  12
ATOM     12  C   ALA A   2      12.585  59.004   5.231  0.00  0.00    +0.000 C 
ATOM     13  O   ALA A   2      11.456  59.570   5.380  0.00  0.00    +0.000 OA
ATOM     14  OXT ALA A   2      13.622  59.935   5.401  0.00  0.00    +0.000 OA
ENDBRANCH   2  12
ENDBRANCH   3   2
BRANCH   4   6
ATOM      6  CA  ASP A   1       9.515  56.349   7.954  0.00  0.00    +0.000 C 
ATOM      7  N   ASP A   1      10.616  55.996   9.043  0.00  0.00    +0.000 NA
BRANCH   6   8
ATOM      8  CB  ASP A   1       9.627  57.970   8.297  0.00  0.00    +0.000 C 
BRANCH   8   9
ATOM      9  CG  ASP A   1       8.214  58.346   8.620  0.00  0.00    +0.000 C 
ATOM     10  OD1 ASP A   1       7.855  59.548   8.500  0.00  0.00    +0.000 OA
ATOM     11  OD2 ASP A   1       7.662  57.677   9.707  0.00  0.00    +0.000 OA
ENDBRANCH   8   9
ENDBRANCH   6   8
ENDBRANCH   4   6
TORSDOF 5
ENDMDL
MODEL 2
REMARK VINA RESULT:      -4.6     22.825     25.361
REMARK  Name = 
REMARK  5 active torsions:
REMARK  status: ('A' for Active; 'I' for Inactive)
REMARK    1  A    between atoms: CA_2  and  N_3
REMARK    2  A    between atoms: CA_2  and  C_12
REMARK    3  A    between atoms: C_4  and  CA_6
REMARK    4  A    between atoms: CA_6  and  CB_8
REMARK    5  A    between atoms: CB_8  and  CG_9
REMARK                            x       y       z     vdW  Elec       q    Type
REMARK                         _______ _______ _______ _____ _____    ______ ____
ROOT
ATOM      3  N   ALA A   2      16.221  61.678 -16.022  0.00  0.00    +0.000 NA
ATOM      4  C   ASP A   1      16.462  60.431 -16.649  0.00  0.00    +0.000 C 
ATOM      5  O   ASP A   1      15.422  59.821 -17.054  0.00  0.00    +0.000 OA
ENDROOT
BRANCH   3   2
ATOM      1  CB  ALA A   2      14.685  63.439 -16.026  0.00  0.00    +0.000 C 
ATOM      2  CA  ALA A   2      14.744  61.875 -15.478  0.00  0.00    +0.000 C 
BRANCH   2  12
ATOM     12  C   ALA A   2      15.283  62.334 -14.010  0.00  0.00    +0.000 C 
ATOM     13  O   ALA A   2      15.933  61.399 -13.444  0.00  0.00    +0.000 OA
ATOM     14  OXT ALA A   2      16.072  63.493 -14.090  0.00  0.00    +0.000 OA
ENDBRANCH   2  12
ENDBRANCH   3   2
BRANCH   4   6
ATOM      6  CA  ASP A   1      17.427  60.478 -17.959  0.00  0.00    +0.000 C 
ATOM      7  N   ASP A   1      18.647  61.078 -17.138  0.00  0.00    +0.000 NA
BRANCH   6   8
ATOM      8  CB  ASP A   1      17.950  58.925 -17.694  0.00  0.00    +0.000 C 
BRANCH   8   9
ATOM      9  CG  ASP A   1      17.742  58.266 -19.023  0.00  0.00    +0.000 C 
ATOM     10  OD1 ASP A   1      18.562  57.392 -19.411  0.00  0.00    +0.000 OA
ATOM     11  OD2 ASP A   1      17.263  59.103 -20.024  0.00  0.00    +0.000 OA
ENDBRANCH   8   9
ENDBRANCH   6   8
ENDBRANCH   4   6
TORSDOF 5
ENDMDL
MODEL 3
REMARK VINA RESULT:      -4.5      1.710      5.040
REMARK  Name = 
REMARK  5 active torsions:
REMARK  status: ('A' for Active; 'I' for Inactive)
REMARK    1  A    between atoms: CA_2  and  N_3
REMARK    2  A    between atoms: CA_2  and  C_12
REMARK    3  A    between atoms: C_4  and  CA_6
REMARK    4  A    between atoms: CA_6  and  CB_8
REMARK    5  A    between atoms: CB_8  and  CG_9
REMARK                            x       y       z     vdW  Elec       q    Type
REMARK                         _______ _______ _______ _____ _____    ______ ____
ROOT
ATOM      3  N   ALA A   2       8.818  57.483   8.720  0.00  0.00    +0.000 NA
ATOM      4  C   ASP A   1       9.536  56.380   8.195  0.00  0.00    +0.000 C 
ATOM      5  O   ASP A   1       9.297  56.113   6.974  0.00  0.00    +0.000 OA
ENDROOT
BRANCH   3   2
ATOM      1  CB  ALA A   2       7.945  59.472   7.858  0.00  0.00    +0.000 C 
ATOM      2  CA  ALA A   2       7.511  57.872   7.910  0.00  0.00    +0.000 C 
BRANCH   2  12
ATOM     12  C   ALA A   2       6.653  58.077   9.280  0.00  0.00    +0.000 C 
ATOM     13  O   ALA A   2       7.299  57.664  10.295  0.00  0.00    +0.000 OA
ATOM     14  OXT ALA A   2       6.275  59.417   9.457  0.00  0.00    +0.000 OA
ENDBRANCH   2  12
ENDBRANCH   3   2
BRANCH   4   6
ATOM      6  CA  ASP A   1      11.157  56.501   8.263  0.00  0.00    +0.000 C 
ATOM      7  N   ASP A   1      11.366  55.400   7.136  0.00  0.00    +0.000 NA
BRANCH   6   8
ATOM      8  CB  ASP A   1      11.165  57.722   7.138  0.00  0.00    +0.000 C 
BRANCH   8   9
ATOM      9  CG  ASP A   1      12.621  57.889   6.830  0.00  0.00    +0.000 C 
ATOM     10  OD1 ASP A   1      13.323  58.633   7.566  0.00  0.00    +0.000 OA
ATOM     11  OD2 ASP A   1      12.931  57.945   5.476  0.00  0.00    +0.000 OA
ENDBRANCH   8   9
ENDBRANCH   6   8
ENDBRANCH   4   6
TORSDOF 5
ENDMDL
MODEL 4
REMARK VINA RESULT:      -4.4     17.836     20.800
REMARK  Name = 
REMARK  5 active torsions:
REMARK  status: ('A' for Active; 'I' for Inactive)
REMARK    1  A    between atoms: CA_2  and  N_3
REMARK    2  A    between atoms: CA_2  and  C_12
REMARK    3  A    between atoms: C_4  and  CA_6
REMARK    4  A    between atoms: CA_6  and  CB_8
REMARK    5  A    between atoms: CB_8  and  CG_9
REMARK                            x       y       z     vdW  Elec       q    Type
REMARK                         _______ _______ _______ _____ _____    ______ ____
ROOT
ATOM      3  N   ALA A   2      24.202  57.032  -6.409  0.00  0.00    +0.000 NA
ATOM      4  C   ASP A   1      25.617  57.047  -6.492  0.00  0.00    +0.000 C 
ATOM      5  O   ASP A   1      26.223  57.025  -5.373  0.00  0.00    +0.000 OA
ENDROOT
BRANCH   3   2
ATOM      1  CB  ALA A   2      22.558  56.216  -4.962  0.00  0.00    +0.000 C 
ATOM      2  CA  ALA A   2      23.613  57.496  -5.011  0.00  0.00    +0.000 C 
BRANCH   2  12
ATOM     12  C   ALA A   2      22.516  58.464  -5.729  0.00  0.00    +0.000 C 
ATOM     13  O   ALA A   2      21.590  57.786  -6.276  0.00  0.00    +0.000 OA
ATOM     14  OXT ALA A   2      21.971  59.387  -4.822  0.00  0.00    +0.000 OA
ENDBRANCH   2  12
ENDBRANCH   3   2
BRANCH   4   6
ATOM      6  CA  ASP A   1      26.284  55.819  -7.325  0.00  0.00    +0.000 C 
ATOM      7  N   ASP A   1      24.870  55.250  -7.774  0.00  0.00    +0.000 NA
BRANCH   6   8
ATOM      8  CB  ASP A   1      26.401  56.745  -8.698  0.00  0.00    +0.000 C 
BRANCH   8   9
ATOM      9  CG  ASP A   1      27.870  56.736  -8.989  0.00  0.00    +0.000 C 
ATOM     10  OD1 ASP A   1      28.272  57.083 -10.131  0.00  0.00    +0.000 OA
ATOM     11  OD2 ASP A   1      28.575  55.686  -8.414  0.00  0.00    +0.000 OA
ENDBRANCH   8   9
ENDBRANCH   6   8
ENDBRANCH   4   6
TORSDOF 5
ENDMDL
MODEL 5
REMARK VINA RESULT:      -4.4     18.061     20.425
REMARK  Name = 
REMARK  5 active torsions:
REMARK  status: ('A' for Active; 'I' for Inactive)
REMARK    1  A    between atoms: CA_2  and  N_3
REMARK    2  A    between atoms: CA_2  and  C_12
REMARK    3  A    between atoms: C_4  and  CA_6
REMARK    4  A    between atoms: CA_6  and  CB_8
REMARK    5  A    between atoms: CB_8  and  CG_9
REMARK                            x       y       z     vdW  Elec       q    Type
REMARK                         _______ _______ _______ _____ _____    ______ ____
ROOT
ATOM      3  N   ALA A   2      26.598  56.367  -6.743  0.00  0.00    +0.000 NA
ATOM      4  C   ASP A   1      25.270  55.975  -7.039  0.00  0.00    +0.000 C 
ATOM      5  O   ASP A   1      24.985  55.924  -8.278  0.00  0.00    +0.000 OA
ENDROOT
BRANCH   3   2
ATOM      1  CB  ALA A   2      28.786  57.104  -7.107  0.00  0.00    +0.000 C 
ATOM      2  CA  ALA A   2      27.336  57.149  -7.911  0.00  0.00    +0.000 C 
BRANCH   2  12
ATOM     12  C   ALA A   2      26.944  58.595  -7.270  0.00  0.00    +0.000 C 
ATOM     13  O   ALA A   2      27.350  58.691  -6.068  0.00  0.00    +0.000 OA
ATOM     14  OXT ALA A   2      27.450  59.654  -8.040  0.00  0.00    +0.000 OA
ENDBRANCH   2  12
ENDBRANCH   3   2
BRANCH   4   6
ATOM      6  CA  ASP A   1      24.827  54.515  -6.472  0.00  0.00    +0.000 C 
ATOM      7  N   ASP A   1      26.248  54.250  -5.815  0.00  0.00    +0.000 NA
BRANCH   6   8
ATOM      8  CB  ASP A   1      24.246  55.178  -5.066  0.00  0.00    +0.000 C 
BRANCH   8   9
ATOM      9  CG  ASP A   1      22.815  54.736  -5.048  0.00  0.00    +0.000 C 
ATOM     10  OD1 ASP A   1      22.374  54.124  -4.039  0.00  0.00    +0.000 OA
ATOM     11  OD2 ASP A   1      22.326  54.282  -6.267  0.00  0.00    +0.000 OA
ENDBRANCH   8   9
ENDBRANCH   6   8
ENDBRANCH   4   6
TORSDOF 5
ENDMDL
MODEL 6
REMARK VINA RESULT:      -4.4     15.751     18.113
REMARK  Name = 
REMARK  5 active torsions:
REMARK  status: ('A' for Active; 'I' for Inactive)
REMARK    1  A    between atoms: CA_2  and  N_3
REMARK    2  A    between atoms: CA_2  and  C_12
REMARK    3  A    between atoms: C_4  and  CA_6
REMARK    4  A    between atoms: CA_6  and  CB_8
REMARK    5  A    between atoms: CB_8  and  CG_9
REMARK                            x       y       z     vdW  Elec       q    Type
REMARK                         _______ _______ _______ _____ _____    ______ ____
ROOT
ATOM      3  N   ALA A   2      24.208  55.434  -5.411  0.00  0.00    +0.000 NA
ATOM      4  C   ASP A   1      22.792  55.486  -5.437  0.00  0.00    +0.000 C 
ATOM      5  O   ASP A   1      22.225  54.476  -5.963  0.00  0.00    +0.000 OA
ENDROOT
BRANCH   3   2
ATOM      1  CB  ALA A   2      26.144  54.126  -5.452  0.00  0.00    +0.000 C 
ATOM      2  CA  ALA A   2      24.856  54.428  -6.453  0.00  0.00    +0.000 C 
BRANCH   2  12
ATOM     12  C   ALA A   2      25.641  55.634  -7.217  0.00  0.00    +0.000 C 
ATOM     13  O   ALA A   2      25.023  55.993  -8.269  0.00  0.00    +0.000 OA
ATOM     14  OXT ALA A   2      25.840  56.737  -6.372  0.00  0.00    +0.000 OA
ENDBRANCH   2  12
ENDBRANCH   3   2
BRANCH   4   6
ATOM      6  CA  ASP A   1      22.068  55.634  -3.987  0.00  0.00    +0.000 C 
ATOM      7  N   ASP A   1      22.515  54.181  -3.526  0.00  0.00    +0.000 NA
BRANCH   6   8
ATOM      8  CB  ASP A   1      23.427  56.316  -3.320  0.00  0.00    +0.000 C 
BRANCH   8   9
ATOM      9  CG  ASP A   1      22.890  57.530  -2.625  0.00  0.00    +0.000 C 
ATOM     10  OD1 ASP A   1      21.728  57.496  -2.141  0.00  0.00    +0.000 OA
ATOM     11  OD2 ASP A   1      23.249  58.742  -3.202  0.00  0.00    +0.000 OA
ENDBRANCH   8   9
ENDBRANCH   6   8
ENDBRANCH   4   6
TORSDOF 5
ENDMDL
MODEL 7
REMARK VINA RESULT:      -4.4      1.973      2.795
REMARK  Name = 
REMARK  5 active torsions:
REMARK  status: ('A' for Active; 'I' for Inactive)
REMARK    1  A    between atoms: CA_2  and  N_3
REMARK    2  A    between atoms: CA_2  and  C_12
REMARK    3  A    between atoms: C_4  and  CA_6
REMARK    4  A    between atoms: CA_6  and  CB_8
REMARK    5  A    between atoms: CB_8  and  CG_9
REMARK                            x       y       z     vdW  Elec       q    Type
REMARK                         _______ _______ _______ _____ _____    ______ ____
ROOT
ATOM      3  N   ALA A   2       9.523  57.155   7.236  0.00  0.00    +0.000 NA
ATOM      4  C   ASP A   1       8.716  56.325   8.052  0.00  0.00    +0.000 C 
ATOM      5  O   ASP A   1       9.219  56.026   9.182  0.00  0.00    +0.000 OA
ENDROOT
BRANCH   3   2
ATOM      1  CB  ALA A   2      11.292  58.649   6.921  0.00  0.00    +0.000 C 
ATOM      2  CA  ALA A   2      11.065  57.158   7.610  0.00  0.00    +0.000 C 
BRANCH   2  12
ATOM     12  C   ALA A   2      11.460  56.382   6.232  0.00  0.00    +0.000 C 
ATOM     13  O   ALA A   2      12.579  56.785   5.781  0.00  0.00    +0.000 OA
ATOM     14  OXT ALA A   2      11.482  54.990   6.412  0.00  0.00    +0.000 OA
ENDBRANCH   2  12
ENDBRANCH   3   2
BRANCH   4   6
ATOM      6  CA  ASP A   1       7.246  56.918   8.420  0.00  0.00    +0.000 C 
ATOM      7  N   ASP A   1       7.325  56.404   9.921  0.00  0.00    +0.000 NA
BRANCH   6   8
ATOM      8  CB  ASP A   1       7.887  58.391   8.839  0.00  0.00    +0.000 C 
BRANCH   8   9
ATOM      9  CG  ASP A   1       6.853  59.360   8.355  0.00  0.00    +0.000 C 
ATOM     10  OD1 ASP A   1       7.172  60.214   7.484  0.00  0.00    +0.000 OA
ATOM     11  OD2 ASP A   1       5.977  59.820   9.331  0.00  0.00    +0.000 OA
ENDBRANCH   8   9
ENDBRANCH   6   8
ENDBRANCH   4   6
TORSDOF 5
ENDMDL
MODEL 8
REMARK VINA RESULT:      -4.4     12.690     13.335
REMARK  Name = 
REMARK  5 active torsions:
REMARK  status: ('A' for Active; 'I' for Inactive)
REMARK    1  A    between atoms: CA_2  and  N_3
REMARK    2  A    between atoms: CA_2  and  C_12
REMARK    3  A    between atoms: C_4  and  CA_6
REMARK    4  A    between atoms: CA_6  and  CB_8
REMARK    5  A    between atoms: CB_8  and  CG_9
REMARK                            x       y       z     vdW  Elec       q    Type
REMARK                         _______ _______ _______ _____ _____    ______ ____
ROOT
ATOM      3  N   ALA A   2      19.150  62.976  16.226  0.00  0.00    +0.000 NA
ATOM      4  C   ASP A   1      19.285  61.606  15.889  0.00  0.00    +0.000 C 
ATOM      5  O   ASP A   1      20.471  61.232  15.617  0.00  0.00    +0.000 OA
ENDROOT
BRANCH   3   2
ATOM      1  CB  ALA A   2      20.385  64.718  17.176  0.00  0.00    +0.000 C 
ATOM      2  CA  ALA A   2      20.339  63.903  15.732  0.00  0.00    +0.000 C 
BRANCH   2  12
ATOM     12  C   ALA A   2      19.305  64.978  15.076  0.00  0.00    +0.000 C 
ATOM     13  O   ALA A   2      19.745  66.166  15.185  0.00  0.00    +0.000 OA
ATOM     14  OXT ALA A   2      19.037  64.681  13.731  0.00  0.00    +0.000 OA
ENDBRANCH   2  12
ENDBRANCH   3   2
BRANCH   4   6
ATOM      6  CA  ASP A   1      18.790  60.551  17.025  0.00  0.00    +0.000 C 
ATOM      7  N   ASP A   1      20.163  60.640  17.820  0.00  0.00    +0.000 NA
BRANCH   6   8
ATOM      8  CB  ASP A   1      18.127  61.768  17.940  0.00  0.00    +0.000 C 
BRANCH   8   9
ATOM      9  CG  ASP A   1      16.700  61.338  18.091  0.00  0.00    +0.000 C 
ATOM     10  OD1 ASP A   1      15.786  62.200  17.997  0.00  0.00    +0.000 OA
ATOM     11  OD2 ASP A   1      16.482  60.357  19.051  0.00  0.00    +0.000 OA
ENDBRANCH   8   9
ENDBRANCH   6   8
ENDBRANCH   4   6
TORSDOF 5
ENDMDL
MODEL 9
REMARK VINA RESULT:      -4.3     12.213     13.364
REMARK  Name = 
REMARK  5 active torsions:
REMARK  status: ('A' for Active; 'I' for Inactive)
REMARK    1  A    between atoms: CA_2  and  N_3
REMARK    2  A    between atoms: CA_2  and  C_12
REMARK    3  A    between atoms: C_4  and  CA_6
REMARK    4  A    between atoms: CA_6  and  CB_8
REMARK    5  A    between atoms: CB_8  and  CG_9
REMARK                            x       y       z     vdW  Elec       q    Type
REMARK                         _______ _______ _______ _____ _____    ______ ____
ROOT
ATOM      3  N   ALA A   2      18.453  65.623  13.158  0.00  0.00    +0.000 NA
ATOM      4  C   ASP A   1      17.358  66.515  13.269  0.00  0.00    +0.000 C 
ATOM      5  O   ASP A   1      17.601  67.590  13.905  0.00  0.00    +0.000 OA
ENDROOT
BRANCH   3   2
ATOM      1  CB  ALA A   2      20.782  65.796  13.068  0.00  0.00    +0.000 C 
ATOM      2  CA  ALA A   2      19.601  65.841  14.231  0.00  0.00    +0.000 C 
BRANCH   2  12
ATOM     12  C   ALA A   2      19.719  64.241  14.516  0.00  0.00    +0.000 C 
ATOM     13  O   ALA A   2      18.876  63.864  15.390  0.00  0.00    +0.000 OA
ATOM     14  OXT ALA A   2      19.563  63.495  13.337  0.00  0.00    +0.000 OA
ENDBRANCH   2  12
ENDBRANCH   3   2
BRANCH   4   6
ATOM      6  CA  ASP A   1      16.724  67.027  11.860  0.00  0.00    +0.000 C 
ATOM      7  N   ASP A   1      15.304  67.314  12.510  0.00  0.00    +0.000 NA
BRANCH   6   8
ATOM      8  CB  ASP A   1      17.222  68.585  12.141  0.00  0.00    +0.000 C 
BRANCH   8   9
ATOM      9  CG  ASP A   1      17.486  69.110  10.763  0.00  0.00    +0.000 C 
ATOM     10  OD1 ASP A   1      16.705  68.794   9.826  0.00  0.00    +0.000 OA
ATOM     11  OD2 ASP A   1      18.827  69.181  10.409  0.00  0.00    +0.000 OA
ENDBRANCH   8   9
ENDBRANCH   6   8
ENDBRANCH   4   6
TORSDOF 5
ENDMDL
MODEL 10
REMARK VINA RESULT:      -4.3     12.099     13.099
REMARK  Name = 
REMARK  5 active torsions:
REMARK  status: ('A' for Active; 'I' for Inactive)
REMARK    1  A    between atoms: CA_2  and  N_3
REMARK    2  A    between atoms: CA_2  and  C_12
REMARK    3  A    between atoms: C_4  and  CA_6
REMARK    4  A    between atoms: CA_6  and  CB_8
REMARK    5  A    between atoms: CB_8  and  CG_9
REMARK                            x       y       z     vdW  Elec       q    Type
REMARK                         _______ _______ _______ _____ _____    ______ ____
ROOT
ATOM      3  N   ALA A   2      19.328  64.544  13.994  0.00  0.00    +0.000 NA
ATOM      4  C   ASP A   1      19.605  65.928  13.873  0.00  0.00    +0.000 C 
ATOM      5  O   ASP A   1      20.839  66.224  13.769  0.00  0.00    +0.000 OA
ENDROOT
BRANCH   3   2
ATOM      1  CB  ALA A   2      20.578  62.802  13.065  0.00  0.00    +0.000 C 
ATOM      2  CA  ALA A   2      20.552  63.661  14.484  0.00  0.00    +0.000 C 
BRANCH   2  12
ATOM     12  C   ALA A   2      19.562  62.583  15.201  0.00  0.00    +0.000 C 
ATOM     13  O   ALA A   2      18.600  63.165  15.797  0.00  0.00    +0.000 OA
ATOM     14  OXT ALA A   2      19.066  61.646  14.280  0.00  0.00    +0.000 OA
ENDBRANCH   2  12
ENDBRANCH   3   2
BRANCH   4   6
ATOM      6  CA  ASP A   1      18.913  66.674  12.603  0.00  0.00    +0.000 C 
ATOM      7  N   ASP A   1      18.144  65.361  12.148  0.00  0.00    +0.000 NA
BRANCH   6   8
ATOM      8  CB  ASP A   1      17.624  67.166  13.528  0.00  0.00    +0.000 C 
BRANCH   8   9
ATOM      9  CG  ASP A   1      16.628  67.620  12.506  0.00  0.00    +0.000 C 
ATOM     10  OD1 ASP A   1      16.774  68.749  11.966  0.00  0.00    +0.000 OA
ATOM     11  OD2 ASP A   1      15.312  67.264  12.772  0.00  0.00    +0.000 OA
ENDBRANCH   8   9
ENDBRANCH   6   8
ENDBRANCH   4   6
TORSDOF 5
ENDMDL
