MODEL 1
REMARK VINA RESULT:      -8.0      0.000      0.000
REMARK  Name = 
REMARK  14 active torsions:
REMARK  status: ('A' for Active; 'I' for Inactive)
REMARK    1  A    between atoms: O_2  and  C_3
REMARK    2  A    between atoms: C_5  and  C_6
REMARK    3  A    between atoms: C_7  and  C_8
REMARK    4  A    between atoms: C_8  and  C_10
REMARK    5  A    between atoms: C_11  and  C_12
REMARK    6  A    between atoms: C_13  and  C_14
REMARK    7  A    between atoms: C_19  and  O_20
REMARK    8  A    between atoms: C_24  and  C_25
REMARK    9  A    between atoms: C_30  and  O_31
REMARK   10  A    between atoms: C_34  and  C_35
REMARK   11  A    between atoms: C_35  and  C_37
REMARK   12  A    between atoms: C_38  and  C_40
REMARK   13  A    between atoms: C_41  and  C_42
REMARK   14  A    between atoms: C_47  and  O_48
REMARK                            x       y       z     vdW  Elec       q    Type
REMARK                         _______ _______ _______ _____ _____    ______ ____
ROOT
ATOM     10  C   UNL     1       9.569  54.961  -0.899  0.00  0.00    +0.000 C 
ATOM     11  C   UNL     1       9.802  55.617  -2.003  0.00  0.00    +0.000 C 
ATOM     23  O   UNL     1      10.599  56.723  -1.669  0.00  0.00    +0.000 OA
ATOM     24  C   UNL     1      11.758  55.915  -1.078  0.00  0.00    +0.000 C 
ATOM     34  C   UNL     1      10.710  55.330   0.152  0.00  0.00    +0.000 C 
ENDROOT
BRANCH  24  25
ATOM     25  C   UNL     1      12.349  57.165  -0.248  0.00  0.00    +0.000 A 
ATOM     26  C   UNL     1      13.618  56.838   0.213  0.00  0.00    +0.000 A 
ATOM     27  C   UNL     1      14.590  57.826   0.310  0.00  0.00    +0.000 A 
ATOM     28  C   UNL     1      14.618  58.809  -0.670  0.00  0.00    +0.000 A 
ATOM     29  O   UNL     1      15.812  59.180  -1.301  0.00  0.00    +0.000 OA
ATOM     30  C   UNL     1      13.382  59.168  -1.196  0.00  0.00    +0.000 A 
ATOM     33  C   UNL     1      12.300  58.321  -1.019  0.00  0.00    +0.000 A 
BRANCH  30  31
ATOM     31  O   UNL     1      13.453  60.075  -2.263  0.00  0.00    +0.000 OA
ATOM     32  C   UNL     1      13.202  61.442  -1.944  0.00  0.00    +0.000 C 
ENDBRANCH  30  31
ENDBRANCH  24  25
BRANCH  10   8
ATOM      8  C   UNL     1       8.773  53.748  -0.774  0.00  0.00    +0.000 C 
ATOM      9  O   UNL     1       9.114  52.617  -1.163  0.00  0.00    +0.000 OA
BRANCH   8   7
ATOM      6  C   UNL     1       6.735  53.047   0.326  0.00  0.00    +0.000 C 
ATOM      7  C   UNL     1       7.849  53.740   0.369  0.00  0.00    +0.000 C 
BRANCH   6   5
ATOM      3  C   UNL     1       6.231  51.765   3.716  0.00  0.00    +0.000 A 
ATOM      4  C   UNL     1       6.278  51.671   2.340  0.00  0.00    +0.000 A 
ATOM      5  C   UNL     1       5.971  52.768   1.549  0.00  0.00    +0.000 A 
ATOM     51  C   UNL     1       5.361  53.837   2.161  0.00  0.00    +0.000 A 
ATOM     52  C   UNL     1       5.238  53.942   3.540  0.00  0.00    +0.000 A 
ATOM     53  C   UNL     1       5.657  52.876   4.322  0.00  0.00    +0.000 A 
ATOM     54  O   UNL     1       5.754  53.005   5.711  0.00  0.00    +0.000 OA
BRANCH   3   2
ATOM      1  C   UNL     1       7.143  50.107   4.906  0.00  0.00    +0.000 C 
ATOM      2  O   UNL     1       6.717  50.780   4.536  0.00  0.00    +0.000 OA
ENDBRANCH   3   2
ENDBRANCH   6   5
ENDBRANCH   8   7
ENDBRANCH  10   8
BRANCH  11  12
ATOM     12  C   UNL     1       9.237  55.220  -3.276  0.00  0.00    +0.000 C 
ATOM     13  C   UNL     1       9.265  55.552  -4.463  0.00  0.00    +0.000 C 
BRANCH  13  14
ATOM     14  C   UNL     1      10.106  56.240  -5.398  0.00  0.00    +0.000 A 
ATOM     15  C   UNL     1      10.481  55.684  -6.620  0.00  0.00    +0.000 A 
ATOM     16  C   UNL     1      10.236  56.426  -7.773  0.00  0.00    +0.000 A 
ATOM     17  C   UNL     1      10.377  57.806  -7.697  0.00  0.00    +0.000 A 
ATOM     18  O   UNL     1      10.745  58.484  -8.858  0.00  0.00    +0.000 OA
ATOM     19  C   UNL     1      10.550  58.390  -6.448  0.00  0.00    +0.000 A 
ATOM     22  C   UNL     1      10.336  57.612  -5.336  0.00  0.00    +0.000 A 
BRANCH  19  20
ATOM     20  O   UNL     1      11.221  59.616  -6.371  0.00  0.00    +0.000 OA
ATOM     21  C   UNL     1      11.333  60.175  -5.073  0.00  0.00    +0.000 C 
ENDBRANCH  19  20
ENDBRANCH  13  14
ENDBRANCH  11  12
BRANCH  34  35
ATOM     35  C   UNL     1      10.104  56.741   0.588  0.00  0.00    +0.000 C 
ATOM     36  O   UNL     1       9.046  57.160   0.149  0.00  0.00    +0.000 OA
BRANCH  35  37
ATOM     37  C   UNL     1      10.339  57.019   2.013  0.00  0.00    +0.000 C 
ATOM     38  C   UNL     1      10.623  58.227   2.486  0.00  0.00    +0.000 C 
ATOM     39  O   UNL     1      10.210  59.289   1.672  0.00  0.00    +0.000 OA
BRANCH  38  40
ATOM     40  C   UNL     1      10.247  58.422   3.896  0.00  0.00    +0.000 C 
ATOM     41  C   UNL     1      10.865  59.219   4.721  0.00  0.00    +0.000 C 
BRANCH  41  42
ATOM     42  C   UNL     1      11.213  58.845   6.073  0.00  0.00    +0.000 A 
ATOM     43  C   UNL     1      12.501  58.820   6.572  0.00  0.00    +0.000 A 
ATOM     44  C   UNL     1      12.745  57.995   7.663  0.00  0.00    +0.000 A 
ATOM     45  C   UNL     1      11.735  57.346   8.331  0.00  0.00    +0.000 A 
ATOM     46  O   UNL     1      11.880  56.124   8.969  0.00  0.00    +0.000 OA
ATOM     47  C   UNL     1      10.438  57.716   8.005  0.00  0.00    +0.000 A 
ATOM     50  C   UNL     1      10.210  58.659   7.017  0.00  0.00    +0.000 A 
BRANCH  47  48
ATOM     48  O   UNL     1       9.421  57.260   8.814  0.00  0.00    +0.000 OA
ATOM     49  C   UNL     1       8.355  56.456   8.377  0.00  0.00    +0.000 C 
ENDBRANCH  47  48
ENDBRANCH  41  42
ENDBRANCH  38  40
ENDBRANCH  35  37
ENDBRANCH  34  35
TORSDOF 14
ENDMDL
MODEL 2
REMARK VINA RESULT:      -7.9     18.648     24.757
REMARK  Name = 
REMARK  14 active torsions:
REMARK  status: ('A' for Active; 'I' for Inactive)
REMARK    1  A    between atoms: O_2  and  C_3
REMARK    2  A    between atoms: C_5  and  C_6
REMARK    3  A    between atoms: C_7  and  C_8
REMARK    4  A    between atoms: C_8  and  C_10
REMARK    5  A    between atoms: C_11  and  C_12
REMARK    6  A    between atoms: C_13  and  C_14
REMARK    7  A    between atoms: C_19  and  O_20
REMARK    8  A    between atoms: C_24  and  C_25
REMARK    9  A    between atoms: C_30  and  O_31
REMARK   10  A    between atoms: C_34  and  C_35
REMARK   11  A    between atoms: C_35  and  C_37
REMARK   12  A    between atoms: C_38  and  C_40
REMARK   13  A    between atoms: C_41  and  C_42
REMARK   14  A    between atoms: C_47  and  O_48
REMARK                            x       y       z     vdW  Elec       q    Type
REMARK                         _______ _______ _______ _____ _____    ______ ____
ROOT
ATOM     10  C   UNL     1       4.858  55.327  22.274  0.00  0.00    +0.000 C 
ATOM     11  C   UNL     1       3.718  54.723  22.073  0.00  0.00    +0.000 C 
ATOM     23  O   UNL     1       3.130  54.513  23.330  0.00  0.00    +0.000 OA
ATOM     24  C   UNL     1       3.077  55.991  23.733  0.00  0.00    +0.000 C 
ATOM     34  C   UNL     1       4.794  56.053  23.694  0.00  0.00    +0.000 C 
ENDROOT
BRANCH  24  25
ATOM     25  C   UNL     1       2.933  55.669  25.306  0.00  0.00    +0.000 A 
ATOM     26  C   UNL     1       2.744  56.863  25.992  0.00  0.00    +0.000 A 
ATOM     27  C   UNL     1       1.939  56.885  27.124  0.00  0.00    +0.000 A 
ATOM     28  C   UNL     1       0.804  56.084  27.131  0.00  0.00    +0.000 A 
ATOM     29  O   UNL     1      -0.442  56.584  27.528  0.00  0.00    +0.000 OA
ATOM     30  C   UNL     1       0.914  54.883  26.439  0.00  0.00    +0.000 A 
ATOM     33  C   UNL     1       1.933  54.725  25.515  0.00  0.00    +0.000 A 
BRANCH  30  31
ATOM     31  O   UNL     1      -0.281  54.153  26.364  0.00  0.00    +0.000 OA
ATOM     32  C   UNL     1      -0.902  54.093  25.081  0.00  0.00    +0.000 C 
ENDBRANCH  30  31
ENDBRANCH  24  25
BRANCH  10   8
ATOM      8  C   UNL     1       5.808  55.730  21.248  0.00  0.00    +0.000 C 
ATOM      9  O   UNL     1       5.704  56.733  20.520  0.00  0.00    +0.000 OA
BRANCH   8   7
ATOM      6  C   UNL     1       7.918  55.906  22.420  0.00  0.00    +0.000 C 
ATOM      7  C   UNL     1       7.194  55.309  21.502  0.00  0.00    +0.000 C 
BRANCH   6   5
ATOM      3  C   UNL     1      11.172  55.883  24.095  0.00  0.00    +0.000 A 
ATOM      4  C   UNL     1      10.320  56.064  23.024  0.00  0.00    +0.000 A 
ATOM      5  C   UNL     1       9.166  55.304  22.906  0.00  0.00    +0.000 A 
ATOM     51  C   UNL     1       9.052  54.200  23.717  0.00  0.00    +0.000 A 
ATOM     52  C   UNL     1       9.924  53.948  24.768  0.00  0.00    +0.000 A 
ATOM     53  C   UNL     1      11.013  54.790  24.937  0.00  0.00    +0.000 A 
ATOM     54  O   UNL     1      11.800  54.715  26.090  0.00  0.00    +0.000 OA
BRANCH   3   2
ATOM      1  C   UNL     1      12.906  57.273  24.340  0.00  0.00    +0.000 C 
ATOM      2  O   UNL     1      12.207  56.741  24.362  0.00  0.00    +0.000 OA
ENDBRANCH   3   2
ENDBRANCH   6   5
ENDBRANCH   8   7
ENDBRANCH  10   8
BRANCH  11  12
ATOM     12  C   UNL     1       3.270  54.331  20.753  0.00  0.00    +0.000 C 
ATOM     13  C   UNL     1       3.675  53.707  19.769  0.00  0.00    +0.000 C 
BRANCH  13  14
ATOM     14  C   UNL     1       4.616  52.684  19.420  0.00  0.00    +0.000 A 
ATOM     15  C   UNL     1       4.311  51.325  19.499  0.00  0.00    +0.000 A 
ATOM     16  C   UNL     1       4.512  50.548  18.361  0.00  0.00    +0.000 A 
ATOM     17  C   UNL     1       5.602  50.851  17.554  0.00  0.00    +0.000 A 
ATOM     18  O   UNL     1       6.179  49.811  16.828  0.00  0.00    +0.000 OA
ATOM     19  C   UNL     1       6.308  52.023  17.801  0.00  0.00    +0.000 A 
ATOM     22  C   UNL     1       5.759  52.938  18.667  0.00  0.00    +0.000 A 
BRANCH  19  20
ATOM     20  O   UNL     1       7.653  52.085  17.419  0.00  0.00    +0.000 OA
ATOM     21  C   UNL     1       8.456  53.001  18.144  0.00  0.00    +0.000 C 
ENDBRANCH  19  20
ENDBRANCH  13  14
ENDBRANCH  11  12
BRANCH  34  35
ATOM     35  C   UNL     1       5.063  54.749  24.575  0.00  0.00    +0.000 C 
ATOM     36  O   UNL     1       5.334  53.669  24.077  0.00  0.00    +0.000 OA
BRANCH  35  37
ATOM     37  C   UNL     1       5.799  55.066  25.807  0.00  0.00    +0.000 C 
ATOM     38  C   UNL     1       6.339  54.144  26.596  0.00  0.00    +0.000 C 
ATOM     39  O   UNL     1       6.608  52.920  25.970  0.00  0.00    +0.000 OA
BRANCH  38  40
ATOM     40  C   UNL     1       7.478  54.628  27.392  0.00  0.00    +0.000 C 
ATOM     41  C   UNL     1       7.369  55.302  28.503  0.00  0.00    +0.000 C 
BRANCH  41  42
ATOM     42  C   UNL     1       8.159  56.476  28.797  0.00  0.00    +0.000 A 
ATOM     43  C   UNL     1       7.725  57.538  29.567  0.00  0.00    +0.000 A 
ATOM     44  C   UNL     1       8.341  58.767  29.363  0.00  0.00    +0.000 A 
ATOM     45  C   UNL     1       9.440  58.909  28.550  0.00  0.00    +0.000 A 
ATOM     46  O   UNL     1       9.736  60.056  27.832  0.00  0.00    +0.000 OA
ATOM     47  C   UNL     1      10.041  57.738  28.109  0.00  0.00    +0.000 A 
ATOM     50  C   UNL     1       9.504  56.508  28.451  0.00  0.00    +0.000 A 
BRANCH  47  48
ATOM     48  O   UNL     1      11.269  57.843  27.495  0.00  0.00    +0.000 OA
ATOM     49  C   UNL     1      12.482  57.422  28.065  0.00  0.00    +0.000 C 
ENDBRANCH  47  48
ENDBRANCH  41  42
ENDBRANCH  38  40
ENDBRANCH  35  37
ENDBRANCH  34  35
TORSDOF 14
ENDMDL
MODEL 3
REMARK VINA RESULT:      -7.9      1.756      2.579
REMARK  Name = 
REMARK  14 active torsions:
REMARK  status: ('A' for Active; 'I' for Inactive)
REMARK    1  A    between atoms: O_2  and  C_3
REMARK    2  A    between atoms: C_5  and  C_6
REMARK    3  A    between atoms: C_7  and  C_8
REMARK    4  A    between atoms: C_8  and  C_10
REMARK    5  A    between atoms: C_11  and  C_12
REMARK    6  A    between atoms: C_13  and  C_14
REMARK    7  A    between atoms: C_19  and  O_20
REMARK    8  A    between atoms: C_24  and  C_25
REMARK    9  A    between atoms: C_30  and  O_31
REMARK   10  A    between atoms: C_34  and  C_35
REMARK   11  A    between atoms: C_35  and  C_37
REMARK   12  A    between atoms: C_38  and  C_40
REMARK   13  A    between atoms: C_41  and  C_42
REMARK   14  A    between atoms: C_47  and  O_48
REMARK                            x       y       z     vdW  Elec       q    Type
REMARK                         _______ _______ _______ _____ _____    ______ ____
ROOT
ATOM     10  C   UNL     1       9.225  54.620  -1.631  0.00  0.00    +0.000 C 
ATOM     11  C   UNL     1       9.899  55.272  -2.541  0.00  0.00    +0.000 C 
ATOM     23  O   UNL     1      10.288  56.495  -1.975  0.00  0.00    +0.000 OA
ATOM     24  C   UNL     1      11.084  55.890  -0.814  0.00  0.00    +0.000 C 
ATOM     34  C   UNL     1       9.639  55.190  -0.200  0.00  0.00    +0.000 C 
ENDROOT
BRANCH  24  25
ATOM     25  C   UNL     1      11.033  57.239   0.068  0.00  0.00    +0.000 A 
ATOM     26  C   UNL     1      11.957  57.136   1.100  0.00  0.00    +0.000 A 
ATOM     27  C   UNL     1      12.622  58.272   1.543  0.00  0.00    +0.000 A 
ATOM     28  C   UNL     1      12.986  59.224   0.599  0.00  0.00    +0.000 A 
ATOM     29  O   UNL     1      14.275  59.770   0.569  0.00  0.00    +0.000 OA
ATOM     30  C   UNL     1      12.117  59.362  -0.478  0.00  0.00    +0.000 A 
ATOM     33  C   UNL     1      11.207  58.354  -0.747  0.00  0.00    +0.000 A 
BRANCH  30  31
ATOM     31  O   UNL     1      12.569  60.242  -1.471  0.00  0.00    +0.000 OA
ATOM     32  C   UNL     1      12.499  59.766  -2.813  0.00  0.00    +0.000 C 
ENDBRANCH  30  31
ENDBRANCH  24  25
BRANCH  10   8
ATOM      8  C   UNL     1       8.621  53.305  -1.789  0.00  0.00    +0.000 C 
ATOM      9  O   UNL     1       8.674  52.604  -2.814  0.00  0.00    +0.000 OA
BRANCH   8   7
ATOM      6  C   UNL     1       7.753  51.456  -0.491  0.00  0.00    +0.000 C 
ATOM      7  C   UNL     1       8.492  52.540  -0.540  0.00  0.00    +0.000 C 
BRANCH   6   5
ATOM      3  C   UNL     1       7.029  50.159   2.853  0.00  0.00    +0.000 A 
ATOM      4  C   UNL     1       7.696  50.946   1.937  0.00  0.00    +0.000 A 
ATOM      5  C   UNL     1       7.866  50.515   0.630  0.00  0.00    +0.000 A 
ATOM     51  C   UNL     1       7.605  49.192   0.363  0.00  0.00    +0.000 A 
ATOM     52  C   UNL     1       6.990  48.349   1.279  0.00  0.00    +0.000 A 
ATOM     53  C   UNL     1       6.725  48.838   2.550  0.00  0.00    +0.000 A 
ATOM     54  O   UNL     1       5.925  48.115   3.440  0.00  0.00    +0.000 OA
BRANCH   3   2
ATOM      1  C   UNL     1       6.454  51.098   4.799  0.00  0.00    +0.000 C 
ATOM      2  O   UNL     1       6.660  50.624   4.089  0.00  0.00    +0.000 OA
ENDBRANCH   3   2
ENDBRANCH   6   5
ENDBRANCH   8   7
ENDBRANCH  10   8
BRANCH  11  12
ATOM     12  C   UNL     1      10.092  54.755  -3.880  0.00  0.00    +0.000 C 
ATOM     13  C   UNL     1       9.952  55.107  -5.053  0.00  0.00    +0.000 C 
BRANCH  13  14
ATOM     14  C   UNL     1       9.891  56.297  -5.850  0.00  0.00    +0.000 A 
ATOM     15  C   UNL     1      10.005  57.574  -5.302  0.00  0.00    +0.000 A 
ATOM     16  C   UNL     1      10.968  58.427  -5.836  0.00  0.00    +0.000 A 
ATOM     17  C   UNL     1      11.203  58.361  -7.204  0.00  0.00    +0.000 A 
ATOM     18  O   UNL     1      11.641  59.520  -7.843  0.00  0.00    +0.000 OA
ATOM     19  C   UNL     1      10.629  57.324  -7.930  0.00  0.00    +0.000 A 
ATOM     22  C   UNL     1      10.058  56.286  -7.232  0.00  0.00    +0.000 A 
BRANCH  19  20
ATOM     20  O   UNL     1      10.379  57.520  -9.293  0.00  0.00    +0.000 OA
ATOM     21  C   UNL     1       9.407  56.665  -9.870  0.00  0.00    +0.000 C 
ENDBRANCH  19  20
ENDBRANCH  13  14
ENDBRANCH  11  12
BRANCH  34  35
ATOM     35  C   UNL     1       8.737  56.505  -0.261  0.00  0.00    +0.000 C 
ATOM     36  O   UNL     1       7.842  56.645  -1.078  0.00  0.00    +0.000 OA
BRANCH  35  37
ATOM     37  C   UNL     1       8.438  57.024   1.082  0.00  0.00    +0.000 C 
ATOM     38  C   UNL     1       7.795  56.325   2.010  0.00  0.00    +0.000 C 
ATOM     39  O   UNL     1       7.851  54.935   1.843  0.00  0.00    +0.000 OA
BRANCH  38  40
ATOM     40  C   UNL     1       8.101  56.736   3.390  0.00  0.00    +0.000 C 
ATOM     41  C   UNL     1       8.988  57.635   3.712  0.00  0.00    +0.000 C 
BRANCH  41  42
ATOM     42  C   UNL     1       9.938  57.460   4.787  0.00  0.00    +0.000 A 
ATOM     43  C   UNL     1      11.176  56.862   4.649  0.00  0.00    +0.000 A 
ATOM     44  C   UNL     1      11.752  56.317   5.790  0.00  0.00    +0.000 A 
ATOM     45  C   UNL     1      11.207  56.491   7.040  0.00  0.00    +0.000 A 
ATOM     46  O   UNL     1      11.311  55.572   8.072  0.00  0.00    +0.000 OA
ATOM     47  C   UNL     1      10.175  57.413   7.143  0.00  0.00    +0.000 A 
ATOM     50  C   UNL     1       9.711  58.070   6.015  0.00  0.00    +0.000 A 
BRANCH  47  48
ATOM     48  O   UNL     1       9.771  57.780   8.408  0.00  0.00    +0.000 OA
ATOM     49  C   UNL     1       8.695  58.640   8.681  0.00  0.00    +0.000 C 
ENDBRANCH  47  48
ENDBRANCH  41  42
ENDBRANCH  38  40
ENDBRANCH  35  37
ENDBRANCH  34  35
TORSDOF 14
ENDMDL
MODEL 4
REMARK VINA RESULT:      -7.9     13.211     17.102
REMARK  Name = 
REMARK  14 active torsions:
REMARK  status: ('A' for Active; 'I' for Inactive)
REMARK    1  A    between atoms: O_2  and  C_3
REMARK    2  A    between atoms: C_5  and  C_6
REMARK    3  A    between atoms: C_7  and  C_8
REMARK    4  A    between atoms: C_8  and  C_10
REMARK    5  A    between atoms: C_11  and  C_12
REMARK    6  A    between atoms: C_13  and  C_14
REMARK    7  A    between atoms: C_19  and  O_20
REMARK    8  A    between atoms: C_24  and  C_25
REMARK    9  A    between atoms: C_30  and  O_31
REMARK   10  A    between atoms: C_34  and  C_35
REMARK   11  A    between atoms: C_35  and  C_37
REMARK   12  A    between atoms: C_38  and  C_40
REMARK   13  A    between atoms: C_41  and  C_42
REMARK   14  A    between atoms: C_47  and  O_48
REMARK                            x       y       z     vdW  Elec       q    Type
REMARK                         _______ _______ _______ _____ _____    ______ ____
ROOT
ATOM     10  C   UNL     1      13.966  61.546 -15.373  0.00  0.00    +0.000 C 
ATOM     11  C   UNL     1      13.525  62.281 -16.358  0.00  0.00    +0.000 C 
ATOM     23  O   UNL     1      13.319  63.574 -15.854  0.00  0.00    +0.000 OA
ATOM     24  C   UNL     1      14.765  63.804 -15.403  0.00  0.00    +0.000 C 
ATOM     34  C   UNL     1      14.610  62.513 -14.279  0.00  0.00    +0.000 C 
ENDROOT
BRANCH  24  25
ATOM     25  C   UNL     1      14.374  64.991 -14.385  0.00  0.00    +0.000 A 
ATOM     26  C   UNL     1      15.528  65.682 -14.037  0.00  0.00    +0.000 A 
ATOM     27  C   UNL     1      15.466  67.050 -13.800  0.00  0.00    +0.000 A 
ATOM     28  C   UNL     1      14.611  67.809 -14.589  0.00  0.00    +0.000 A 
ATOM     29  O   UNL     1      15.033  69.003 -15.186  0.00  0.00    +0.000 OA
ATOM     30  C   UNL     1      13.446  67.169 -14.997  0.00  0.00    +0.000 A 
ATOM     33  C   UNL     1      13.375  65.788 -14.935  0.00  0.00    +0.000 A 
BRANCH  30  31
ATOM     31  O   UNL     1      12.661  67.917 -15.887  0.00  0.00    +0.000 OA
ATOM     32  C   UNL     1      11.329  68.202 -15.464  0.00  0.00    +0.000 C 
ENDBRANCH  30  31
ENDBRANCH  24  25
BRANCH  10   8
ATOM      8  C   UNL     1      14.303  60.132 -15.442  0.00  0.00    +0.000 C 
ATOM      9  O   UNL     1      15.448  59.656 -15.341  0.00  0.00    +0.000 OA
BRANCH   8   7
ATOM      6  C   UNL     1      12.670  58.390 -15.837  0.00  0.00    +0.000 C 
ATOM      7  C   UNL     1      13.233  59.227 -14.997  0.00  0.00    +0.000 C 
BRANCH   6   5
ATOM      3  C   UNL     1      10.256  56.748 -13.631  0.00  0.00    +0.000 A 
ATOM      4  C   UNL     1      11.514  57.171 -14.011  0.00  0.00    +0.000 A 
ATOM      5  C   UNL     1      11.845  57.276 -15.353  0.00  0.00    +0.000 A 
ATOM     51  C   UNL     1      10.996  56.688 -16.261  0.00  0.00    +0.000 A 
ATOM     52  C   UNL     1       9.747  56.194 -15.909  0.00  0.00    +0.000 A 
ATOM     53  C   UNL     1       9.389  56.203 -14.569  0.00  0.00    +0.000 A 
ATOM     54  O   UNL     1       8.076  55.918 -14.181  0.00  0.00    +0.000 OA
BRANCH   3   2
ATOM      1  C   UNL     1       9.727  56.898 -11.464  0.00  0.00    +0.000 C 
ATOM      2  O   UNL     1       9.817  56.822 -12.334  0.00  0.00    +0.000 OA
ENDBRANCH   3   2
ENDBRANCH   6   5
ENDBRANCH   8   7
ENDBRANCH  10   8
BRANCH  11  12
ATOM     12  C   UNL     1      13.270  61.738 -17.677  0.00  0.00    +0.000 C 
ATOM     13  C   UNL     1      13.883  61.242 -18.624  0.00  0.00    +0.000 C 
BRANCH  13  14
ATOM     14  C   UNL     1      15.103  60.545 -18.908  0.00  0.00    +0.000 A 
ATOM     15  C   UNL     1      16.341  61.184 -18.946  0.00  0.00    +0.000 A 
ATOM     16  C   UNL     1      17.363  60.668 -18.153  0.00  0.00    +0.000 A 
ATOM     17  C   UNL     1      17.428  59.288 -17.997  0.00  0.00    +0.000 A 
ATOM     18  O   UNL     1      18.681  58.720 -17.773  0.00  0.00    +0.000 OA
ATOM     19  C   UNL     1      16.369  58.516 -18.460  0.00  0.00    +0.000 A 
ATOM     22  C   UNL     1      15.212  59.159 -18.829  0.00  0.00    +0.000 A 
BRANCH  19  20
ATOM     20  O   UNL     1      16.621  57.187 -18.821  0.00  0.00    +0.000 OA
ATOM     21  C   UNL     1      16.265  56.210 -17.857  0.00  0.00    +0.000 C 
ENDBRANCH  19  20
ENDBRANCH  13  14
ENDBRANCH  11  12
BRANCH  34  35
ATOM     35  C   UNL     1      13.234  62.983 -13.621  0.00  0.00    +0.000 C 
ATOM     36  O   UNL     1      12.196  62.358 -13.763  0.00  0.00    +0.000 OA
BRANCH  35  37
ATOM     37  C   UNL     1      13.437  63.552 -12.281  0.00  0.00    +0.000 C 
ATOM     38  C   UNL     1      13.781  62.827 -11.222  0.00  0.00    +0.000 C 
ATOM     39  O   UNL     1      14.415  61.615 -11.521  0.00  0.00    +0.000 OA
BRANCH  38  40
ATOM     40  C   UNL     1      14.488  63.588 -10.179  0.00  0.00    +0.000 C 
ATOM     41  C   UNL     1      14.534  64.889 -10.117  0.00  0.00    +0.000 C 
BRANCH  41  42
ATOM     42  C   UNL     1      15.747  65.627  -9.846  0.00  0.00    +0.000 A 
ATOM     43  C   UNL     1      15.979  66.927 -10.250  0.00  0.00    +0.000 A 
ATOM     44  C   UNL     1      17.304  67.329 -10.374  0.00  0.00    +0.000 A 
ATOM     45  C   UNL     1      18.350  66.537  -9.968  0.00  0.00    +0.000 A 
ATOM     46  O   UNL     1      19.607  66.543 -10.553  0.00  0.00    +0.000 OA
ATOM     47  C   UNL     1      18.023  65.407  -9.232  0.00  0.00    +0.000 A 
ATOM     50  C   UNL     1      16.697  65.099  -8.980  0.00  0.00    +0.000 A 
BRANCH  47  48
ATOM     48  O   UNL     1      19.051  64.727  -8.615  0.00  0.00    +0.000 OA
ATOM     49  C   UNL     1      19.026  64.287  -7.282  0.00  0.00    +0.000 C 
ENDBRANCH  47  48
ENDBRANCH  41  42
ENDBRANCH  38  40
ENDBRANCH  35  37
ENDBRANCH  34  35
TORSDOF 14
ENDMDL
MODEL 5
REMARK VINA RESULT:      -7.7     17.089     23.643
REMARK  Name = 
REMARK  14 active torsions:
REMARK  status: ('A' for Active; 'I' for Inactive)
REMARK    1  A    between atoms: O_2  and  C_3
REMARK    2  A    between atoms: C_5  and  C_6
REMARK    3  A    between atoms: C_7  and  C_8
REMARK    4  A    between atoms: C_8  and  C_10
REMARK    5  A    between atoms: C_11  and  C_12
REMARK    6  A    between atoms: C_13  and  C_14
REMARK    7  A    between atoms: C_19  and  O_20
REMARK    8  A    between atoms: C_24  and  C_25
REMARK    9  A    between atoms: C_30  and  O_31
REMARK   10  A    between atoms: C_34  and  C_35
REMARK   11  A    between atoms: C_35  and  C_37
REMARK   12  A    between atoms: C_38  and  C_40
REMARK   13  A    between atoms: C_41  and  C_42
REMARK   14  A    between atoms: C_47  and  O_48
REMARK                            x       y       z     vdW  Elec       q    Type
REMARK                         _______ _______ _______ _____ _____    ______ ____
ROOT
ATOM     10  C   UNL     1       7.933  43.771 -15.618  0.00  0.00    +0.000 C 
ATOM     11  C   UNL     1       7.768  42.517 -15.940  0.00  0.00    +0.000 C 
ATOM     23  O   UNL     1       7.510  42.472 -17.319  0.00  0.00    +0.000 OA
ATOM     24  C   UNL     1       8.820  43.138 -17.751  0.00  0.00    +0.000 C 
ATOM     34  C   UNL     1       8.348  44.574 -16.932  0.00  0.00    +0.000 C 
ENDROOT
BRANCH  24  25
ATOM     25  C   UNL     1       8.257  43.552 -19.203  0.00  0.00    +0.000 A 
ATOM     26  C   UNL     1       9.302  44.072 -19.958  0.00  0.00    +0.000 A 
ATOM     27  C   UNL     1       9.332  43.858 -21.330  0.00  0.00    +0.000 A 
ATOM     28  C   UNL     1       8.892  42.630 -21.808  0.00  0.00    +0.000 A 
ATOM     29  O   UNL     1       9.634  41.902 -22.746  0.00  0.00    +0.000 OA
ATOM     30  C   UNL     1       7.863  42.039 -21.083  0.00  0.00    +0.000 A 
ATOM     33  C   UNL     1       7.607  42.473 -19.794  0.00  0.00    +0.000 A 
BRANCH  30  31
ATOM     31  O   UNL     1       7.522  40.750 -21.518  0.00  0.00    +0.000 OA
ATOM     32  C   UNL     1       7.770  39.690 -20.596  0.00  0.00    +0.000 C 
ENDBRANCH  30  31
ENDBRANCH  24  25
BRANCH  10   8
ATOM      8  C   UNL     1       8.212  44.285 -14.284  0.00  0.00    +0.000 C 
ATOM      9  O   UNL     1       9.335  44.595 -13.849  0.00  0.00    +0.000 OA
BRANCH   8   7
ATOM      6  C   UNL     1       7.308  45.815 -12.642  0.00  0.00    +0.000 C 
ATOM      7  C   UNL     1       7.101  45.030 -13.673  0.00  0.00    +0.000 C 
BRANCH   6   5
ATOM      3  C   UNL     1       5.299  48.858 -12.957  0.00  0.00    +0.000 A 
ATOM      4  C   UNL     1       6.415  48.131 -12.597  0.00  0.00    +0.000 A 
ATOM      5  C   UNL     1       6.299  46.799 -12.228  0.00  0.00    +0.000 A 
ATOM     51  C   UNL     1       5.036  46.324 -11.967  0.00  0.00    +0.000 A 
ATOM     52  C   UNL     1       3.887  47.049 -12.258  0.00  0.00    +0.000 A 
ATOM     53  C   UNL     1       4.028  48.344 -12.734  0.00  0.00    +0.000 A 
ATOM     54  O   UNL     1       2.926  49.041 -13.239  0.00  0.00    +0.000 OA
BRANCH   3   2
ATOM      1  C   UNL     1       5.328  50.825 -14.019  0.00  0.00    +0.000 C 
ATOM      2  O   UNL     1       5.386  50.105 -13.519  0.00  0.00    +0.000 OA
ENDBRANCH   3   2
ENDBRANCH   6   5
ENDBRANCH   8   7
ENDBRANCH  10   8
BRANCH  11  12
ATOM     12  C   UNL     1       7.802  41.453 -14.958  0.00  0.00    +0.000 C 
ATOM     13  C   UNL     1       7.417  40.290 -14.817  0.00  0.00    +0.000 C 
BRANCH  13  14
ATOM     14  C   UNL     1       7.054  39.144 -15.597  0.00  0.00    +0.000 A 
ATOM     15  C   UNL     1       7.398  39.012 -16.942  0.00  0.00    +0.000 A 
ATOM     16  C   UNL     1       8.073  37.858 -17.330  0.00  0.00    +0.000 A 
ATOM     17  C   UNL     1       7.733  36.667 -16.700  0.00  0.00    +0.000 A 
ATOM     18  O   UNL     1       7.891  35.485 -17.421  0.00  0.00    +0.000 OA
ATOM     19  C   UNL     1       6.900  36.715 -15.588  0.00  0.00    +0.000 A 
ATOM     22  C   UNL     1       6.646  37.942 -15.024  0.00  0.00    +0.000 A 
BRANCH  19  20
ATOM     20  O   UNL     1       6.122  35.591 -15.287  0.00  0.00    +0.000 OA
ATOM     21  C   UNL     1       6.315  35.038 -13.997  0.00  0.00    +0.000 C 
ENDBRANCH  19  20
ENDBRANCH  13  14
ENDBRANCH  11  12
BRANCH  34  35
ATOM     35  C   UNL     1       6.880  44.684 -17.549  0.00  0.00    +0.000 C 
ATOM     36  O   UNL     1       5.879  44.439 -16.896  0.00  0.00    +0.000 OA
BRANCH  35  37
ATOM     37  C   UNL     1       6.758  45.825 -18.467  0.00  0.00    +0.000 C 
ATOM     38  C   UNL     1       6.326  47.024 -18.092  0.00  0.00    +0.000 C 
ATOM     39  O   UNL     1       6.463  47.296 -16.725  0.00  0.00    +0.000 OA
BRANCH  38  40
ATOM     40  C   UNL     1       6.815  48.127 -18.935  0.00  0.00    +0.000 C 
ATOM     41  C   UNL     1       7.289  47.981 -20.140  0.00  0.00    +0.000 C 
BRANCH  41  42
ATOM     42  C   UNL     1       8.491  48.638 -20.604  0.00  0.00    +0.000 A 
ATOM     43  C   UNL     1       8.647  50.008 -20.697  0.00  0.00    +0.000 A 
ATOM     44  C   UNL     1       9.600  50.481 -21.592  0.00  0.00    +0.000 A 
ATOM     45  C   UNL     1      10.468  49.641 -22.249  0.00  0.00    +0.000 A 
ATOM     46  O   UNL     1      10.986  49.888 -23.510  0.00  0.00    +0.000 OA
ATOM     47  C   UNL     1      10.497  48.321 -21.821  0.00  0.00    +0.000 A 
ATOM     50  C   UNL     1       9.646  47.896 -20.815  0.00  0.00    +0.000 A 
BRANCH  47  48
ATOM     48  O   UNL     1      11.512  47.520 -22.294  0.00  0.00    +0.000 OA
ATOM     49  C   UNL     1      12.761  47.367 -21.668  0.00  0.00    +0.000 C 
ENDBRANCH  47  48
ENDBRANCH  41  42
ENDBRANCH  38  40
ENDBRANCH  35  37
ENDBRANCH  34  35
TORSDOF 14
ENDMDL
MODEL 6
REMARK VINA RESULT:      -7.6     15.434     20.804
REMARK  Name = 
REMARK  14 active torsions:
REMARK  status: ('A' for Active; 'I' for Inactive)
REMARK    1  A    between atoms: O_2  and  C_3
REMARK    2  A    between atoms: C_5  and  C_6
REMARK    3  A    between atoms: C_7  and  C_8
REMARK    4  A    between atoms: C_8  and  C_10
REMARK    5  A    between atoms: C_11  and  C_12
REMARK    6  A    between atoms: C_13  and  C_14
REMARK    7  A    between atoms: C_19  and  O_20
REMARK    8  A    between atoms: C_24  and  C_25
REMARK    9  A    between atoms: C_30  and  O_31
REMARK   10  A    between atoms: C_34  and  C_35
REMARK   11  A    between atoms: C_35  and  C_37
REMARK   12  A    between atoms: C_38  and  C_40
REMARK   13  A    between atoms: C_41  and  C_42
REMARK   14  A    between atoms: C_47  and  O_48
REMARK                            x       y       z     vdW  Elec       q    Type
REMARK                         _______ _______ _______ _____ _____    ______ ____
ROOT
ATOM     10  C   UNL     1      20.373  65.589  13.523  0.00  0.00    +0.000 C 
ATOM     11  C   UNL     1      19.349  65.591  14.333  0.00  0.00    +0.000 C 
ATOM     23  O   UNL     1      19.183  64.278  14.798  0.00  0.00    +0.000 OA
ATOM     24  C   UNL     1      20.573  64.151  15.428  0.00  0.00    +0.000 C 
ATOM     34  C   UNL     1      21.284  64.327  13.873  0.00  0.00    +0.000 C 
ENDROOT
BRANCH  24  25
ATOM     25  C   UNL     1      20.540  62.540  15.443  0.00  0.00    +0.000 A 
ATOM     26  C   UNL     1      21.711  62.072  16.027  0.00  0.00    +0.000 A 
ATOM     27  C   UNL     1      21.684  60.907  16.783  0.00  0.00    +0.000 A 
ATOM     28  C   UNL     1      20.566  60.669  17.573  0.00  0.00    +0.000 A 
ATOM     29  O   UNL     1      20.685  60.279  18.912  0.00  0.00    +0.000 OA
ATOM     30  C   UNL     1      19.361  61.136  17.061  0.00  0.00    +0.000 A 
ATOM     33  C   UNL     1      19.375  62.088  16.055  0.00  0.00    +0.000 A 
BRANCH  30  31
ATOM     31  O   UNL     1      18.271  60.987  17.931  0.00  0.00    +0.000 OA
ATOM     32  C   UNL     1      17.013  61.456  17.450  0.00  0.00    +0.000 C 
ENDBRANCH  30  31
ENDBRANCH  24  25
BRANCH  10   8
ATOM      8  C   UNL     1      20.899  66.739  12.801  0.00  0.00    +0.000 C 
ATOM      9  O   UNL     1      20.527  67.118  11.677  0.00  0.00    +0.000 OA
BRANCH   8   7
ATOM      6  C   UNL     1      21.084  69.066  13.440  0.00  0.00    +0.000 C 
ATOM      7  C   UNL     1      21.414  67.814  13.661  0.00  0.00    +0.000 C 
BRANCH   6   5
ATOM      3  C   UNL     1      22.181  70.356  16.684  0.00  0.00    +0.000 A 
ATOM      4  C   UNL     1      21.282  69.784  15.807  0.00  0.00    +0.000 A 
ATOM      5  C   UNL     1      21.318  70.099  14.457  0.00  0.00    +0.000 A 
ATOM     51  C   UNL     1      22.074  71.184  14.082  0.00  0.00    +0.000 A 
ATOM     52  C   UNL     1      22.946  71.827  14.950  0.00  0.00    +0.000 A 
ATOM     53  C   UNL     1      22.976  71.420  16.275  0.00  0.00    +0.000 A 
ATOM     54  O   UNL     1      23.973  71.880  17.140  0.00  0.00    +0.000 OA
BRANCH   3   2
ATOM      1  C   UNL     1      22.276  69.514  18.753  0.00  0.00    +0.000 C 
ATOM      2  O   UNL     1      22.317  69.928  17.979  0.00  0.00    +0.000 OA
ENDBRANCH   3   2
ENDBRANCH   6   5
ENDBRANCH   8   7
ENDBRANCH  10   8
BRANCH  11  12
ATOM     12  C   UNL     1      18.561  66.781  14.583  0.00  0.00    +0.000 C 
ATOM     13  C   UNL     1      17.954  67.655  13.962  0.00  0.00    +0.000 C 
BRANCH  13  14
ATOM     14  C   UNL     1      17.315  67.869  12.697  0.00  0.00    +0.000 A 
ATOM     15  C   UNL     1      17.338  69.100  12.043  0.00  0.00    +0.000 A 
ATOM     16  C   UNL     1      17.791  69.128  10.727  0.00  0.00    +0.000 A 
ATOM     17  C   UNL     1      17.481  68.046   9.912  0.00  0.00    +0.000 A 
ATOM     18  O   UNL     1      17.356  68.281   8.544  0.00  0.00    +0.000 OA
ATOM     19  C   UNL     1      16.923  66.913  10.493  0.00  0.00    +0.000 A 
ATOM     22  C   UNL     1      16.925  66.823  11.864  0.00  0.00    +0.000 A 
BRANCH  19  20
ATOM     20  O   UNL     1      16.122  66.082   9.701  0.00  0.00    +0.000 OA
ATOM     21  C   UNL     1      14.748  66.426   9.643  0.00  0.00    +0.000 C 
ENDBRANCH  19  20
ENDBRANCH  13  14
ENDBRANCH  11  12
BRANCH  34  35
ATOM     35  C   UNL     1      20.387  63.242  13.119  0.00  0.00    +0.000 C 
ATOM     36  O   UNL     1      19.385  63.546  12.493  0.00  0.00    +0.000 OA
BRANCH  35  37
ATOM     37  C   UNL     1      21.208  62.189  12.504  0.00  0.00    +0.000 C 
ATOM     38  C   UNL     1      21.636  62.234  11.248  0.00  0.00    +0.000 C 
ATOM     39  O   UNL     1      21.701  63.520  10.695  0.00  0.00    +0.000 OA
BRANCH  38  40
ATOM     40  C   UNL     1      22.863  61.458  11.004  0.00  0.00    +0.000 C 
ATOM     41  C   UNL     1      22.906  60.159  10.899  0.00  0.00    +0.000 C 
BRANCH  41  42
ATOM     42  C   UNL     1      23.907  59.344  11.550  0.00  0.00    +0.000 A 
ATOM     43  C   UNL     1      24.541  58.267  10.963  0.00  0.00    +0.000 A 
ATOM     44  C   UNL     1      25.073  57.301  11.809  0.00  0.00    +0.000 A 
ATOM     45  C   UNL     1      25.116  57.468  13.173  0.00  0.00    +0.000 A 
ATOM     46  O   UNL     1      25.045  56.429  14.088  0.00  0.00    +0.000 OA
ATOM     47  C   UNL     1      24.803  58.731  13.654  0.00  0.00    +0.000 A 
ATOM     50  C   UNL     1      24.422  59.735  12.780  0.00  0.00    +0.000 A 
BRANCH  47  48
ATOM     48  O   UNL     1      25.064  58.991  14.981  0.00  0.00    +0.000 OA
ATOM     49  C   UNL     1      25.125  60.277  15.542  0.00  0.00    +0.000 C 
ENDBRANCH  47  48
ENDBRANCH  41  42
ENDBRANCH  38  40
ENDBRANCH  35  37
ENDBRANCH  34  35
TORSDOF 14
ENDMDL
MODEL 7
REMARK VINA RESULT:      -7.5      1.596      2.092
REMARK  Name = 
REMARK  14 active torsions:
REMARK  status: ('A' for Active; 'I' for Inactive)
REMARK    1  A    between atoms: O_2  and  C_3
REMARK    2  A    between atoms: C_5  and  C_6
REMARK    3  A    between atoms: C_7  and  C_8
REMARK    4  A    between atoms: C_8  and  C_10
REMARK    5  A    between atoms: C_11  and  C_12
REMARK    6  A    between atoms: C_13  and  C_14
REMARK    7  A    between atoms: C_19  and  O_20
REMARK    8  A    between atoms: C_24  and  C_25
REMARK    9  A    between atoms: C_30  and  O_31
REMARK   10  A    between atoms: C_34  and  C_35
REMARK   11  A    between atoms: C_35  and  C_37
REMARK   12  A    between atoms: C_38  and  C_40
REMARK   13  A    between atoms: C_41  and  C_42
REMARK   14  A    between atoms: C_47  and  O_48
REMARK                            x       y       z     vdW  Elec       q    Type
REMARK                         _______ _______ _______ _____ _____    ______ ____
ROOT
ATOM     10  C   UNL     1       9.300  55.011  -0.791  0.00  0.00    +0.000 C 
ATOM     11  C   UNL     1       9.565  55.645  -1.902  0.00  0.00    +0.000 C 
ATOM     23  O   UNL     1      10.405  56.721  -1.578  0.00  0.00    +0.000 OA
ATOM     24  C   UNL     1      11.527  55.874  -0.970  0.00  0.00    +0.000 C 
ATOM     34  C   UNL     1      10.450  55.347   0.261  0.00  0.00    +0.000 C 
ENDROOT
BRANCH  24  25
ATOM     25  C   UNL     1      12.165  57.108  -0.153  0.00  0.00    +0.000 A 
ATOM     26  C   UNL     1      13.432  56.747   0.290  0.00  0.00    +0.000 A 
ATOM     27  C   UNL     1      14.432  57.707   0.370  0.00  0.00    +0.000 A 
ATOM     28  C   UNL     1      14.473  58.688  -0.613  0.00  0.00    +0.000 A 
ATOM     29  O   UNL     1      15.667  59.023  -1.263  0.00  0.00    +0.000 OA
ATOM     30  C   UNL     1      13.239  59.079  -1.121  0.00  0.00    +0.000 A 
ATOM     33  C   UNL     1      12.137  58.264  -0.926  0.00  0.00    +0.000 A 
BRANCH  30  31
ATOM     31  O   UNL     1      13.319  59.982  -2.192  0.00  0.00    +0.000 OA
ATOM     32  C   UNL     1      12.360  59.808  -3.233  0.00  0.00    +0.000 C 
ENDBRANCH  30  31
ENDBRANCH  24  25
BRANCH  10   8
ATOM      8  C   UNL     1       8.455  53.834  -0.656  0.00  0.00    +0.000 C 
ATOM      9  O   UNL     1       8.839  52.655  -0.745  0.00  0.00    +0.000 OA
BRANCH   8   7
ATOM      6  C   UNL     1       7.354  53.789   1.499  0.00  0.00    +0.000 C 
ATOM      7  C   UNL     1       7.281  54.022   0.209  0.00  0.00    +0.000 C 
BRANCH   6   5
ATOM      3  C   UNL     1       5.397  56.316   3.281  0.00  0.00    +0.000 A 
ATOM      4  C   UNL     1       6.469  55.465   3.101  0.00  0.00    +0.000 A 
ATOM      5  C   UNL     1       6.311  54.271   2.414  0.00  0.00    +0.000 A 
ATOM     51  C   UNL     1       5.027  53.844   2.176  0.00  0.00    +0.000 A 
ATOM     52  C   UNL     1       3.916  54.646   2.402  0.00  0.00    +0.000 A 
ATOM     53  C   UNL     1       4.109  55.888   2.988  0.00  0.00    +0.000 A 
ATOM     54  O   UNL     1       3.066  56.819   3.046  0.00  0.00    +0.000 OA
BRANCH   3   2
ATOM      1  C   UNL     1       5.810  58.334   4.150  0.00  0.00    +0.000 C 
ATOM      2  O   UNL     1       5.545  57.589   3.769  0.00  0.00    +0.000 OA
ENDBRANCH   3   2
ENDBRANCH   6   5
ENDBRANCH   8   7
ENDBRANCH  10   8
BRANCH  11  12
ATOM     12  C   UNL     1       8.989  55.255  -3.173  0.00  0.00    +0.000 C 
ATOM     13  C   UNL     1       9.043  55.567  -4.364  0.00  0.00    +0.000 C 
BRANCH  13  14
ATOM     14  C   UNL     1       9.924  56.196  -5.303  0.00  0.00    +0.000 A 
ATOM     15  C   UNL     1      10.430  55.532  -6.420  0.00  0.00    +0.000 A 
ATOM     16  C   UNL     1      10.245  56.124  -7.667  0.00  0.00    +0.000 A 
ATOM     17  C   UNL     1      10.307  57.510  -7.740  0.00  0.00    +0.000 A 
ATOM     18  O   UNL     1      10.737  58.076  -8.939  0.00  0.00    +0.000 OA
ATOM     19  C   UNL     1      10.343  58.239  -6.557  0.00  0.00    +0.000 A 
ATOM     22  C   UNL     1      10.075  57.578  -5.383  0.00  0.00    +0.000 A 
BRANCH  19  20
ATOM     20  O   UNL     1      10.940  59.505  -6.571  0.00  0.00    +0.000 OA
ATOM     21  C   UNL     1      10.131  60.571  -6.103  0.00  0.00    +0.000 C 
ENDBRANCH  19  20
ENDBRANCH  13  14
ENDBRANCH  11  12
BRANCH  34  35
ATOM     35  C   UNL     1       9.901  56.787   0.677  0.00  0.00    +0.000 C 
ATOM     36  O   UNL     1       8.874  57.252   0.212  0.00  0.00    +0.000 OA
BRANCH  35  37
ATOM     37  C   UNL     1      10.115  57.060   2.106  0.00  0.00    +0.000 C 
ATOM     38  C   UNL     1      10.444  58.256   2.581  0.00  0.00    +0.000 C 
ATOM     39  O   UNL     1      10.100  59.333   1.754  0.00  0.00    +0.000 OA
BRANCH  38  40
ATOM     40  C   UNL     1      10.044  58.475   3.981  0.00  0.00    +0.000 C 
ATOM     41  C   UNL     1      10.822  58.972   4.902  0.00  0.00    +0.000 C 
BRANCH  41  42
ATOM     42  C   UNL     1      10.924  58.420   6.234  0.00  0.00    +0.000 A 
ATOM     43  C   UNL     1      11.905  57.536   6.642  0.00  0.00    +0.000 A 
ATOM     44  C   UNL     1      11.616  56.722   7.730  0.00  0.00    +0.000 A 
ATOM     45  C   UNL     1      10.475  56.880   8.480  0.00  0.00    +0.000 A 
ATOM     46  O   UNL     1       9.819  55.846   9.131  0.00  0.00    +0.000 OA
ATOM     47  C   UNL     1       9.726  58.023   8.237  0.00  0.00    +0.000 A 
ATOM     50  C   UNL     1      10.113  58.912   7.249  0.00  0.00    +0.000 A 
BRANCH  47  48
ATOM     48  O   UNL     1       8.718  58.326   9.125  0.00  0.00    +0.000 OA
ATOM     49  C   UNL     1       7.398  58.633   8.755  0.00  0.00    +0.000 C 
ENDBRANCH  47  48
ENDBRANCH  41  42
ENDBRANCH  38  40
ENDBRANCH  35  37
ENDBRANCH  34  35
TORSDOF 14
ENDMDL
MODEL 8
REMARK VINA RESULT:      -7.5     25.087     30.030
REMARK  Name = 
REMARK  14 active torsions:
REMARK  status: ('A' for Active; 'I' for Inactive)
REMARK    1  A    between atoms: O_2  and  C_3
REMARK    2  A    between atoms: C_5  and  C_6
REMARK    3  A    between atoms: C_7  and  C_8
REMARK    4  A    between atoms: C_8  and  C_10
REMARK    5  A    between atoms: C_11  and  C_12
REMARK    6  A    between atoms: C_13  and  C_14
REMARK    7  A    between atoms: C_19  and  O_20
REMARK    8  A    between atoms: C_24  and  C_25
REMARK    9  A    between atoms: C_30  and  O_31
REMARK   10  A    between atoms: C_34  and  C_35
REMARK   11  A    between atoms: C_35  and  C_37
REMARK   12  A    between atoms: C_38  and  C_40
REMARK   13  A    between atoms: C_41  and  C_42
REMARK   14  A    between atoms: C_47  and  O_48
REMARK                            x       y       z     vdW  Elec       q    Type
REMARK                         _______ _______ _______ _____ _____    ______ ____
ROOT
ATOM     10  C   UNL     1      18.502  27.848  -1.610  0.00  0.00    +0.000 C 
ATOM     11  C   UNL     1      18.272  26.625  -2.007  0.00  0.00    +0.000 C 
ATOM     23  O   UNL     1      17.005  26.262  -1.526  0.00  0.00    +0.000 OA
ATOM     24  C   UNL     1      16.236  27.383  -2.233  0.00  0.00    +0.000 C 
ATOM     34  C   UNL     1      17.100  28.546  -1.308  0.00  0.00    +0.000 C 
ENDROOT
BRANCH  24  25
ATOM     25  C   UNL     1      14.959  27.271  -1.257  0.00  0.00    +0.000 A 
ATOM     26  C   UNL     1      13.924  28.035  -1.782  0.00  0.00    +0.000 A 
ATOM     27  C   UNL     1      12.609  27.620  -1.615  0.00  0.00    +0.000 A 
ATOM     28  C   UNL     1      12.345  26.257  -1.674  0.00  0.00    +0.000 A 
ATOM     29  O   UNL     1      11.294  25.747  -2.447  0.00  0.00    +0.000 OA
ATOM     30  C   UNL     1      13.351  25.430  -1.188  0.00  0.00    +0.000 A 
ATOM     33  C   UNL     1      14.632  25.936  -1.042  0.00  0.00    +0.000 A 
BRANCH  30  31
ATOM     31  O   UNL     1      13.107  24.061  -1.369  0.00  0.00    +0.000 OA
ATOM     32  C   UNL     1      13.352  23.224  -0.240  0.00  0.00    +0.000 C 
ENDBRANCH  30  31
ENDBRANCH  24  25
BRANCH  10   8
ATOM      8  C   UNL     1      19.705  28.623  -1.874  0.00  0.00    +0.000 C 
ATOM      9  O   UNL     1      19.880  29.376  -2.848  0.00  0.00    +0.000 OA
BRANCH   8   7
ATOM      6  C   UNL     1      20.692  30.270  -0.400  0.00  0.00    +0.000 C 
ATOM      7  C   UNL     1      20.459  29.007  -0.671  0.00  0.00    +0.000 C 
BRANCH   6   5
ATOM      3  C   UNL     1      20.515  32.115   2.755  0.00  0.00    +0.000 A 
ATOM      4  C   UNL     1      20.843  31.944   1.426  0.00  0.00    +0.000 A 
ATOM      5  C   UNL     1      21.149  30.685   0.932  0.00  0.00    +0.000 A 
ATOM     51  C   UNL     1      21.384  29.688   1.849  0.00  0.00    +0.000 A 
ATOM     52  C   UNL     1      21.125  29.839   3.205  0.00  0.00    +0.000 A 
ATOM     53  C   UNL     1      20.711  31.081   3.662  0.00  0.00    +0.000 A 
ATOM     54  O   UNL     1      20.236  31.238   4.968  0.00  0.00    +0.000 OA
BRANCH   3   2
ATOM      1  C   UNL     1      19.659  34.089   3.362  0.00  0.00    +0.000 C 
ATOM      2  O   UNL     1      20.012  33.294   3.241  0.00  0.00    +0.000 OA
ENDBRANCH   3   2
ENDBRANCH   6   5
ENDBRANCH   8   7
ENDBRANCH  10   8
BRANCH  11  12
ATOM     12  C   UNL     1      19.248  25.855  -2.751  0.00  0.00    +0.000 C 
ATOM     13  C   UNL     1      19.307  24.859  -3.474  0.00  0.00    +0.000 C 
BRANCH  13  14
ATOM     14  C   UNL     1      18.479  24.071  -4.339  0.00  0.00    +0.000 A 
ATOM     15  C   UNL     1      18.697  22.710  -4.552  0.00  0.00    +0.000 A 
ATOM     16  C   UNL     1      17.631  21.841  -4.336  0.00  0.00    +0.000 A 
ATOM     17  C   UNL     1      16.357  22.282  -4.671  0.00  0.00    +0.000 A 
ATOM     18  O   UNL     1      15.419  21.324  -5.052  0.00  0.00    +0.000 OA
ATOM     19  C   UNL     1      16.182  23.620  -5.005  0.00  0.00    +0.000 A 
ATOM     22  C   UNL     1      17.218  24.488  -4.759  0.00  0.00    +0.000 A 
BRANCH  19  20
ATOM     20  O   UNL     1      15.114  23.966  -5.842  0.00  0.00    +0.000 OA
ATOM     21  C   UNL     1      13.970  24.494  -5.193  0.00  0.00    +0.000 C 
ENDBRANCH  19  20
ENDBRANCH  13  14
ENDBRANCH  11  12
BRANCH  34  35
ATOM     35  C   UNL     1      16.869  27.876   0.122  0.00  0.00    +0.000 C 
ATOM     36  O   UNL     1      17.776  27.362   0.756  0.00  0.00    +0.000 OA
BRANCH  35  37
ATOM     37  C   UNL     1      15.900  28.632   0.929  0.00  0.00    +0.000 C 
ATOM     38  C   UNL     1      16.192  29.771   1.547  0.00  0.00    +0.000 C 
ATOM     39  O   UNL     1      17.281  30.468   1.009  0.00  0.00    +0.000 OA
BRANCH  38  40
ATOM     40  C   UNL     1      15.028  30.642   1.780  0.00  0.00    +0.000 C 
ATOM     41  C   UNL     1      13.952  30.280   2.420  0.00  0.00    +0.000 C 
BRANCH  41  42
ATOM     42  C   UNL     1      12.616  30.575   1.953  0.00  0.00    +0.000 A 
ATOM     43  C   UNL     1      11.736  29.635   1.453  0.00  0.00    +0.000 A 
ATOM     44  C   UNL     1      10.733  30.088   0.604  0.00  0.00    +0.000 A 
ATOM     45  C   UNL     1      10.511  31.426   0.382  0.00  0.00    +0.000 A 
ATOM     46  O   UNL     1      10.015  31.949  -0.802  0.00  0.00    +0.000 OA
ATOM     47  C   UNL     1      11.191  32.313   1.206  0.00  0.00    +0.000 A 
ATOM     50  C   UNL     1      12.076  31.839   2.160  0.00  0.00    +0.000 A 
BRANCH  47  48
ATOM     48  O   UNL     1      10.815  33.637   1.167  0.00  0.00    +0.000 OA
ATOM     49  C   UNL     1      11.558  34.657   0.551  0.00  0.00    +0.000 C 
ENDBRANCH  47  48
ENDBRANCH  41  42
ENDBRANCH  38  40
ENDBRANCH  35  37
ENDBRANCH  34  35
TORSDOF 14
ENDMDL
MODEL 9
REMARK VINA RESULT:      -7.5      3.361      6.746
REMARK  Name = 
REMARK  14 active torsions:
REMARK  status: ('A' for Active; 'I' for Inactive)
REMARK    1  A    between atoms: O_2  and  C_3
REMARK    2  A    between atoms: C_5  and  C_6
REMARK    3  A    between atoms: C_7  and  C_8
REMARK    4  A    between atoms: C_8  and  C_10
REMARK    5  A    between atoms: C_11  and  C_12
REMARK    6  A    between atoms: C_13  and  C_14
REMARK    7  A    between atoms: C_19  and  O_20
REMARK    8  A    between atoms: C_24  and  C_25
REMARK    9  A    between atoms: C_30  and  O_31
REMARK   10  A    between atoms: C_34  and  C_35
REMARK   11  A    between atoms: C_35  and  C_37
REMARK   12  A    between atoms: C_38  and  C_40
REMARK   13  A    between atoms: C_41  and  C_42
REMARK   14  A    between atoms: C_47  and  O_48
REMARK                            x       y       z     vdW  Elec       q    Type
REMARK                         _______ _______ _______ _____ _____    ______ ____
ROOT
ATOM     10  C   UNL     1      10.523  56.609   0.907  0.00  0.00    +0.000 C 
ATOM     11  C   UNL     1      11.765  56.704   1.298  0.00  0.00    +0.000 C 
ATOM     23  O   UNL     1      11.775  57.476   2.470  0.00  0.00    +0.000 OA
ATOM     24  C   UNL     1      10.855  56.554   3.278  0.00  0.00    +0.000 C 
ATOM     34  C   UNL     1       9.581  56.868   2.168  0.00  0.00    +0.000 C 
ENDROOT
BRANCH  24  25
ATOM     25  C   UNL     1      10.466  57.698   4.345  0.00  0.00    +0.000 A 
ATOM     26  C   UNL     1       9.701  57.128   5.356  0.00  0.00    +0.000 A 
ATOM     27  C   UNL     1       9.813  57.605   6.655  0.00  0.00    +0.000 A 
ATOM     28  C   UNL     1      11.069  57.999   7.099  0.00  0.00    +0.000 A 
ATOM     29  O   UNL     1      11.574  57.580   8.336  0.00  0.00    +0.000 OA
ATOM     30  C   UNL     1      11.899  58.555   6.131  0.00  0.00    +0.000 A 
ATOM     33  C   UNL     1      11.610  58.350   4.793  0.00  0.00    +0.000 A 
BRANCH  30  31
ATOM     31  O   UNL     1      13.198  58.833   6.580  0.00  0.00    +0.000 OA
ATOM     32  C   UNL     1      13.458  60.184   6.955  0.00  0.00    +0.000 C 
ENDBRANCH  30  31
ENDBRANCH  24  25
BRANCH  10   8
ATOM      8  C   UNL     1      10.048  55.904  -0.275  0.00  0.00    +0.000 C 
ATOM      9  O   UNL     1      10.756  55.526  -1.224  0.00  0.00    +0.000 OA
BRANCH   8   7
ATOM      6  C   UNL     1       8.876  53.787  -0.244  0.00  0.00    +0.000 C 
ATOM      7  C   UNL     1       8.846  55.086  -0.055  0.00  0.00    +0.000 C 
BRANCH   6   5
ATOM      3  C   UNL     1       7.449  50.706   1.121  0.00  0.00    +0.000 A 
ATOM      4  C   UNL     1       7.865  51.548   0.110  0.00  0.00    +0.000 A 
ATOM      5  C   UNL     1       7.805  52.925   0.271  0.00  0.00    +0.000 A 
ATOM     51  C   UNL     1       7.072  53.405   1.330  0.00  0.00    +0.000 A 
ATOM     52  C   UNL     1       6.583  52.584   2.337  0.00  0.00    +0.000 A 
ATOM     53  C   UNL     1       6.754  51.214   2.212  0.00  0.00    +0.000 A 
ATOM     54  O   UNL     1       6.474  50.359   3.283  0.00  0.00    +0.000 OA
BRANCH   3   2
ATOM      1  C   UNL     1       7.658  48.486   0.963  0.00  0.00    +0.000 C 
ATOM      2  O   UNL     1       7.677  49.355   1.091  0.00  0.00    +0.000 OA
ENDBRANCH   3   2
ENDBRANCH   6   5
ENDBRANCH   8   7
ENDBRANCH  10   8
BRANCH  11  12
ATOM     12  C   UNL     1      12.862  56.131   0.545  0.00  0.00    +0.000 C 
ATOM     13  C   UNL     1      13.967  56.451   0.102  0.00  0.00    +0.000 C 
BRANCH  13  14
ATOM     14  C   UNL     1      15.023  57.389   0.340  0.00  0.00    +0.000 A 
ATOM     15  C   UNL     1      14.784  58.700   0.752  0.00  0.00    +0.000 A 
ATOM     16  C   UNL     1      15.434  59.149   1.898  0.00  0.00    +0.000 A 
ATOM     17  C   UNL     1      16.728  58.697   2.128  0.00  0.00    +0.000 A 
ATOM     18  O   UNL     1      17.588  59.531   2.841  0.00  0.00    +0.000 OA
ATOM     19  C   UNL     1      17.228  57.675   1.329  0.00  0.00    +0.000 A 
ATOM     22  C   UNL     1      16.349  57.002   0.516  0.00  0.00    +0.000 A 
BRANCH  19  20
ATOM     20  O   UNL     1      18.614  57.584   1.152  0.00  0.00    +0.000 OA
ATOM     21  C   UNL     1      19.290  56.706   2.036  0.00  0.00    +0.000 C 
ENDBRANCH  19  20
ENDBRANCH  13  14
ENDBRANCH  11  12
BRANCH  34  35
ATOM     35  C   UNL     1       9.705  58.459   2.164  0.00  0.00    +0.000 C 
ATOM     36  O   UNL     1      10.332  59.061   1.308  0.00  0.00    +0.000 OA
BRANCH  35  37
ATOM     37  C   UNL     1       8.454  59.105   2.587  0.00  0.00    +0.000 C 
ATOM     38  C   UNL     1       7.468  59.408   1.752  0.00  0.00    +0.000 C 
ATOM     39  O   UNL     1       7.449  58.659   0.568  0.00  0.00    +0.000 OA
BRANCH  38  40
ATOM     40  C   UNL     1       6.143  59.481   2.390  0.00  0.00    +0.000 C 
ATOM     41  C   UNL     1       5.618  60.569   2.879  0.00  0.00    +0.000 C 
BRANCH  41  42
ATOM     42  C   UNL     1       4.954  60.621   4.161  0.00  0.00    +0.000 A 
ATOM     43  C   UNL     1       3.600  60.839   4.333  0.00  0.00    +0.000 A 
ATOM     44  C   UNL     1       3.188  61.354   5.556  0.00  0.00    +0.000 A 
ATOM     45  C   UNL     1       4.050  61.501   6.616  0.00  0.00    +0.000 A 
ATOM     46  O   UNL     1       3.935  62.487   7.585  0.00  0.00    +0.000 OA
ATOM     47  C   UNL     1       5.301  60.915   6.485  0.00  0.00    +0.000 A 
ATOM     50  C   UNL     1       5.646  60.265   5.312  0.00  0.00    +0.000 A 
BRANCH  47  48
ATOM     48  O   UNL     1       6.093  60.842   7.609  0.00  0.00    +0.000 OA
ATOM     49  C   UNL     1       7.349  60.216   7.658  0.00  0.00    +0.000 C 
ENDBRANCH  47  48
ENDBRANCH  41  42
ENDBRANCH  38  40
ENDBRANCH  35  37
ENDBRANCH  34  35
TORSDOF 14
ENDMDL
MODEL 10
REMARK VINA RESULT:      -7.4      2.759     11.391
REMARK  Name = 
REMARK  14 active torsions:
REMARK  status: ('A' for Active; 'I' for Inactive)
REMARK    1  A    between atoms: O_2  and  C_3
REMARK    2  A    between atoms: C_5  and  C_6
REMARK    3  A    between atoms: C_7  and  C_8
REMARK    4  A    between atoms: C_8  and  C_10
REMARK    5  A    between atoms: C_11  and  C_12
REMARK    6  A    between atoms: C_13  and  C_14
REMARK    7  A    between atoms: C_19  and  O_20
REMARK    8  A    between atoms: C_24  and  C_25
REMARK    9  A    between atoms: C_30  and  O_31
REMARK   10  A    between atoms: C_34  and  C_35
REMARK   11  A    between atoms: C_35  and  C_37
REMARK   12  A    between atoms: C_38  and  C_40
REMARK   13  A    between atoms: C_41  and  C_42
REMARK   14  A    between atoms: C_47  and  O_48
REMARK                            x       y       z     vdW  Elec       q    Type
REMARK                         _______ _______ _______ _____ _____    ______ ____
ROOT
ATOM     10  C   UNL     1      12.836  59.211   2.090  0.00  0.00    +0.000 C 
ATOM     11  C   UNL     1      12.140  58.752   3.095  0.00  0.00    +0.000 C 
ATOM     23  O   UNL     1      10.993  58.143   2.565  0.00  0.00    +0.000 OA
ATOM     24  C   UNL     1      11.737  57.118   1.703  0.00  0.00    +0.000 C 
ATOM     34  C   UNL     1      12.417  58.400   0.782  0.00  0.00    +0.000 C 
ENDROOT
BRANCH  24  25
ATOM     25  C   UNL     1      10.471  56.843   0.743  0.00  0.00    +0.000 A 
ATOM     26  C   UNL     1      10.770  55.781  -0.101  0.00  0.00    +0.000 A 
ATOM     27  C   UNL     1       9.763  54.907  -0.490  0.00  0.00    +0.000 A 
ATOM     28  C   UNL     1       8.785  54.585   0.442  0.00  0.00    +0.000 A 
ATOM     29  O   UNL     1       8.395  53.259   0.665  0.00  0.00    +0.000 OA
ATOM     30  C   UNL     1       8.454  55.596   1.338  0.00  0.00    +0.000 A 
ATOM     33  C   UNL     1       9.320  56.663   1.504  0.00  0.00    +0.000 A 
BRANCH  30  31
ATOM     31  O   UNL     1       7.552  55.204   2.338  0.00  0.00    +0.000 OA
ATOM     32  C   UNL     1       6.191  55.577   2.138  0.00  0.00    +0.000 C 
ENDBRANCH  30  31
ENDBRANCH  24  25
BRANCH  10   8
ATOM      8  C   UNL     1      14.100  59.927   2.178  0.00  0.00    +0.000 C 
ATOM      9  O   UNL     1      14.268  61.032   2.722  0.00  0.00    +0.000 OA
BRANCH   8   7
ATOM      6  C   UNL     1      15.880  58.727   1.061  0.00  0.00    +0.000 C 
ATOM      7  C   UNL     1      15.290  59.064   2.184  0.00  0.00    +0.000 C 
BRANCH   6   5
ATOM      3  C   UNL     1      19.529  58.787   1.336  0.00  0.00    +0.000 A 
ATOM      4  C   UNL     1      18.325  58.905   0.672  0.00  0.00    +0.000 A 
ATOM      5  C   UNL     1      17.230  58.148   1.061  0.00  0.00    +0.000 A 
ATOM     51  C   UNL     1      17.459  57.102   1.922  0.00  0.00    +0.000 A 
ATOM     52  C   UNL     1      18.676  56.912   2.564  0.00  0.00    +0.000 A 
ATOM     53  C   UNL     1      19.729  57.754   2.243  0.00  0.00    +0.000 A 
ATOM     54  O   UNL     1      20.904  57.748   3.001  0.00  0.00    +0.000 OA
BRANCH   3   2
ATOM      1  C   UNL     1      21.129  60.267   0.837  0.00  0.00    +0.000 C 
ATOM      2  O   UNL     1      20.572  59.652   1.124  0.00  0.00    +0.000 OA
ENDBRANCH   3   2
ENDBRANCH   6   5
ENDBRANCH   8   7
ENDBRANCH  10   8
BRANCH  11  12
ATOM     12  C   UNL     1      12.544  58.949   4.473  0.00  0.00    +0.000 C 
ATOM     13  C   UNL     1      12.228  58.585   5.607  0.00  0.00    +0.000 C 
BRANCH  13  14
ATOM     14  C   UNL     1      11.568  57.502   6.276  0.00  0.00    +0.000 A 
ATOM     15  C   UNL     1      12.075  56.916   7.435  0.00  0.00    +0.000 A 
ATOM     16  C   UNL     1      11.235  56.837   8.543  0.00  0.00    +0.000 A 
ATOM     17  C   UNL     1       9.884  56.598   8.316  0.00  0.00    +0.000 A 
ATOM     18  O   UNL     1       9.170  55.926   9.306  0.00  0.00    +0.000 OA
ATOM     19  C   UNL     1       9.409  56.655   7.011  0.00  0.00    +0.000 A 
ATOM     22  C   UNL     1      10.235  57.176   6.044  0.00  0.00    +0.000 A 
BRANCH  19  20
ATOM     20  O   UNL     1       8.266  55.916   6.684  0.00  0.00    +0.000 OA
ATOM     21  C   UNL     1       7.374  56.533   5.771  0.00  0.00    +0.000 C 
ENDBRANCH  19  20
ENDBRANCH  13  14
ENDBRANCH  11  12
BRANCH  34  35
ATOM     35  C   UNL     1      11.058  59.191   0.506  0.00  0.00    +0.000 C 
ATOM     36  O   UNL     1      10.797  60.249   1.055  0.00  0.00    +0.000 OA
BRANCH  35  37
ATOM     37  C   UNL     1      10.657  59.109  -0.906  0.00  0.00    +0.000 C 
ATOM     38  C   UNL     1      11.295  59.737  -1.887  0.00  0.00    +0.000 C 
ATOM     39  O   UNL     1      12.626  60.068  -1.604  0.00  0.00    +0.000 OA
BRANCH  38  40
ATOM     40  C   UNL     1      11.144  59.100  -3.205  0.00  0.00    +0.000 C 
ATOM     41  C   UNL     1      10.003  58.743  -3.726  0.00  0.00    +0.000 C 
BRANCH  41  42
ATOM     42  C   UNL     1       9.794  57.470  -4.378  0.00  0.00    +0.000 A 
ATOM     43  C   UNL     1       9.535  56.285  -3.716  0.00  0.00    +0.000 A 
ATOM     44  C   UNL     1       9.848  55.104  -4.378  0.00  0.00    +0.000 A 
ATOM     45  C   UNL     1      10.251  55.086  -5.692  0.00  0.00    +0.000 A 
ATOM     46  O   UNL     1      11.113  54.144  -6.231  0.00  0.00    +0.000 OA
ATOM     47  C   UNL     1      10.127  56.276  -6.395  0.00  0.00    +0.000 A 
ATOM     50  C   UNL     1       9.663  57.416  -5.760  0.00  0.00    +0.000 A 
BRANCH  47  48
ATOM     48  O   UNL     1      10.297  56.231  -7.761  0.00  0.00    +0.000 OA
ATOM     49  C   UNL     1      10.301  57.358  -8.600  0.00  0.00    +0.000 C 
ENDBRANCH  47  48
ENDBRANCH  41  42
ENDBRANCH  38  40
ENDBRANCH  35  37
ENDBRANCH  34  35
TORSDOF 14
ENDMDL
