MODEL 1
REMARK VINA RESULT:      -7.5      0.000      0.000
REMARK  Name = 
REMARK  14 active torsions:
REMARK  status: ('A' for Active; 'I' for Inactive)
REMARK    1  A    between atoms: O_2  and  C_3
REMARK    2  A    between atoms: C_5  and  C_6
REMARK    3  A    between atoms: C_7  and  C_8
REMARK    4  A    between atoms: C_8  and  C_10
REMARK    5  A    between atoms: C_11  and  C_13
REMARK    6  A    between atoms: C_14  and  C_15
REMARK    7  A    between atoms: C_20  and  O_21
REMARK    8  A    between atoms: C_28  and  C_29
REMARK    9  A    between atoms: C_34  and  O_35
REMARK   10  A    between atoms: C_38  and  C_39
REMARK   11  A    between atoms: C_39  and  C_41
REMARK   12  A    between atoms: C_42  and  C_44
REMARK   13  A    between atoms: C_45  and  C_46
REMARK   14  A    between atoms: C_51  and  O_52
REMARK                            x       y       z     vdW  Elec       q    Type
REMARK                         _______ _______ _______ _____ _____    ______ ____
ROOT
ATOM      3  C   UNL     1       0.261  55.425  12.166  0.00  0.00    +0.000 A 
ATOM      4  C   UNL     1       0.403  56.273  13.257  0.00  0.00    +0.000 A 
ATOM      5  C   UNL     1       1.225  57.385  13.101  0.00  0.00    +0.000 A 
ATOM     24  C   UNL     1       2.331  57.149  12.298  0.00  0.00    +0.000 A 
ATOM     25  C   UNL     1       2.473  55.985  11.590  0.00  0.00    +0.000 A 
ATOM     26  C   UNL     1       1.331  55.299  11.285  0.00  0.00    +0.000 A 
ATOM     27  O   UNL     1       1.488  54.326  10.359  0.00  0.00    +0.000 OA
ATOM     28  C   UNL     1       2.993  54.280   9.993  0.00  0.00    +0.000 C 
ATOM     38  C   UNL     1       3.090  56.018  10.105  0.00  0.00    +0.000 C 
ENDROOT
BRANCH  28  29
ATOM     29  C   UNL     1       3.534  54.009  11.513  0.00  0.00    +0.000 A 
ATOM     30  C   UNL     1       4.819  53.479  11.378  0.00  0.00    +0.000 A 
ATOM     31  C   UNL     1       5.222  52.315  12.020  0.00  0.00    +0.000 A 
ATOM     32  C   UNL     1       4.398  51.758  12.973  0.00  0.00    +0.000 A 
ATOM     33  O   UNL     1       4.512  50.433  13.404  0.00  0.00    +0.000 OA
ATOM     34  C   UNL     1       3.229  52.435  13.297  0.00  0.00    +0.000 A 
ATOM     37  C   UNL     1       2.720  53.224  12.300  0.00  0.00    +0.000 A 
BRANCH  34  35
ATOM     35  O   UNL     1       2.750  52.331  14.577  0.00  0.00    +0.000 OA
ATOM     36  C   UNL     1       1.617  51.607  14.972  0.00  0.00    +0.000 C 
ENDBRANCH  34  35
ENDBRANCH  28  29
BRANCH   3   2
ATOM      1  C   UNL     1      -1.008  53.696  13.190  0.00  0.00    +0.000 C 
ATOM      2  O   UNL     1      -0.840  54.567  12.123  0.00  0.00    +0.000 OA
ENDBRANCH   3   2
BRANCH   5   6
ATOM      6  C   UNL     1       0.798  58.733  13.499  0.00  0.00    +0.000 C 
ATOM      7  C   UNL     1       1.400  59.834  13.049  0.00  0.00    +0.000 C 
BRANCH   7   8
ATOM      8  C   UNL     1       0.711  60.935  12.409  0.00  0.00    +0.000 C 
ATOM      9  O   UNL     1      -0.515  61.070  12.668  0.00  0.00    +0.000 OA
BRANCH   8  10
ATOM     10  C   UNL     1       1.319  61.786  11.380  0.00  0.00    +0.000 C 
ATOM     11  C   UNL     1       1.572  61.375  10.154  0.00  0.00    +0.000 C 
ATOM     12  O   UNL     1       0.680  60.412   9.664  0.00  0.00    +0.000 OA
BRANCH  11  13
ATOM     13  C   UNL     1       2.825  61.490   9.459  0.00  0.00    +0.000 C 
ATOM     14  C   UNL     1       3.927  60.824   9.665  0.00  0.00    +0.000 C 
BRANCH  14  15
ATOM     15  C   UNL     1       4.620  60.092   8.593  0.00  0.00    +0.000 A 
ATOM     16  C   UNL     1       3.906  59.654   7.484  0.00  0.00    +0.000 A 
ATOM     17  C   UNL     1       4.345  59.822   6.189  0.00  0.00    +0.000 A 
ATOM     18  C   UNL     1       5.685  60.158   6.024  0.00  0.00    +0.000 A 
ATOM     19  O   UNL     1       6.110  60.878   4.900  0.00  0.00    +0.000 OA
ATOM     20  C   UNL     1       6.539  60.234   7.121  0.00  0.00    +0.000 A 
ATOM     23  C   UNL     1       5.991  60.215   8.398  0.00  0.00    +0.000 A 
BRANCH  20  21
ATOM     21  O   UNL     1       7.850  59.831   6.870  0.00  0.00    +0.000 OA
ATOM     22  C   UNL     1       8.953  60.139   7.660  0.00  0.00    +0.000 C 
ENDBRANCH  20  21
ENDBRANCH  14  15
ENDBRANCH  11  13
ENDBRANCH   8  10
ENDBRANCH   7   8
ENDBRANCH   5   6
BRANCH  38  39
ATOM     39  C   UNL     1       4.622  56.002  10.603  0.00  0.00    +0.000 C 
ATOM     40  O   UNL     1       4.826  56.672  11.664  0.00  0.00    +0.000 OA
BRANCH  39  41
ATOM     41  C   UNL     1       5.455  56.466   9.476  0.00  0.00    +0.000 C 
ATOM     42  C   UNL     1       6.769  56.359   9.611  0.00  0.00    +0.000 C 
ATOM     43  O   UNL     1       7.247  55.620  10.699  0.00  0.00    +0.000 OA
BRANCH  42  44
ATOM     44  C   UNL     1       7.752  56.909   8.717  0.00  0.00    +0.000 C 
ATOM     45  C   UNL     1       8.291  56.318   7.679  0.00  0.00    +0.000 C 
BRANCH  45  46
ATOM     46  C   UNL     1       9.733  56.333   7.430  0.00  0.00    +0.000 A 
ATOM     47  C   UNL     1      10.613  56.159   8.491  0.00  0.00    +0.000 A 
ATOM     48  C   UNL     1      11.796  56.888   8.507  0.00  0.00    +0.000 A 
ATOM     49  C   UNL     1      12.178  57.703   7.454  0.00  0.00    +0.000 A 
ATOM     50  O   UNL     1      12.906  58.855   7.716  0.00  0.00    +0.000 OA
ATOM     51  C   UNL     1      11.466  57.540   6.278  0.00  0.00    +0.000 A 
ATOM     54  C   UNL     1      10.303  56.778   6.254  0.00  0.00    +0.000 A 
BRANCH  51  52
ATOM     52  O   UNL     1      11.928  58.222   5.149  0.00  0.00    +0.000 OA
ATOM     53  C   UNL     1      11.027  58.989   4.399  0.00  0.00    +0.000 C 
ENDBRANCH  51  52
ENDBRANCH  45  46
ENDBRANCH  42  44
ENDBRANCH  39  41
ENDBRANCH  38  39
TORSDOF 14
ENDMDL
MODEL 2
REMARK VINA RESULT:      -7.1     25.616     30.783
REMARK  Name = 
REMARK  14 active torsions:
REMARK  status: ('A' for Active; 'I' for Inactive)
REMARK    1  A    between atoms: O_2  and  C_3
REMARK    2  A    between atoms: C_5  and  C_6
REMARK    3  A    between atoms: C_7  and  C_8
REMARK    4  A    between atoms: C_8  and  C_10
REMARK    5  A    between atoms: C_11  and  C_13
REMARK    6  A    between atoms: C_14  and  C_15
REMARK    7  A    between atoms: C_20  and  O_21
REMARK    8  A    between atoms: C_28  and  C_29
REMARK    9  A    between atoms: C_34  and  O_35
REMARK   10  A    between atoms: C_38  and  C_39
REMARK   11  A    between atoms: C_39  and  C_41
REMARK   12  A    between atoms: C_42  and  C_44
REMARK   13  A    between atoms: C_45  and  C_46
REMARK   14  A    between atoms: C_51  and  O_52
REMARK                            x       y       z     vdW  Elec       q    Type
REMARK                         _______ _______ _______ _____ _____    ______ ____
ROOT
ATOM      3  C   UNL     1      12.500  58.627 -15.746  0.00  0.00    +0.000 A 
ATOM      4  C   UNL     1      13.304  57.567 -16.147  0.00  0.00    +0.000 A 
ATOM      5  C   UNL     1      14.086  57.751 -17.284  0.00  0.00    +0.000 A 
ATOM     24  C   UNL     1      13.473  58.523 -18.259  0.00  0.00    +0.000 A 
ATOM     25  C   UNL     1      12.296  59.183 -18.023  0.00  0.00    +0.000 A 
ATOM     26  C   UNL     1      12.000  59.483 -16.723  0.00  0.00    +0.000 A 
ATOM     27  O   UNL     1      10.989  60.367 -16.564  0.00  0.00    +0.000 OA
ATOM     28  C   UNL     1      10.446  60.701 -17.977  0.00  0.00    +0.000 C 
ATOM     38  C   UNL     1      12.064  60.656 -18.626  0.00  0.00    +0.000 C 
ENDROOT
BRANCH  28  29
ATOM     29  C   UNL     1      10.082  59.162 -18.394  0.00  0.00    +0.000 A 
ATOM     30  C   UNL     1       9.191  59.252 -19.466  0.00  0.00    +0.000 A 
ATOM     31  C   UNL     1       7.984  58.566 -19.498  0.00  0.00    +0.000 A 
ATOM     32  C   UNL     1       7.730  57.616 -18.534  0.00  0.00    +0.000 A 
ATOM     33  O   UNL     1       6.446  57.143 -18.245  0.00  0.00    +0.000 OA
ATOM     34  C   UNL     1       8.733  57.339 -17.613  0.00  0.00    +0.000 A 
ATOM     37  C   UNL     1       9.601  58.371 -17.374  0.00  0.00    +0.000 A 
BRANCH  34  35
ATOM     35  O   UNL     1       8.820  56.068 -17.110  0.00  0.00    +0.000 OA
ATOM     36  C   UNL     1       9.576  55.677 -15.996  0.00  0.00    +0.000 C 
ENDBRANCH  34  35
ENDBRANCH  28  29
BRANCH   3   2
ATOM      1  C   UNL     1      11.227  57.611 -14.015  0.00  0.00    +0.000 C 
ATOM      2  O   UNL     1      12.040  58.657 -14.428  0.00  0.00    +0.000 OA
ENDBRANCH   3   2
BRANCH   5   6
ATOM      6  C   UNL     1      15.515  57.415 -17.311  0.00  0.00    +0.000 C 
ATOM      7  C   UNL     1      16.142  57.054 -18.430  0.00  0.00    +0.000 C 
BRANCH   7   8
ATOM      8  C   UNL     1      17.347  57.684 -18.927  0.00  0.00    +0.000 C 
ATOM      9  O   UNL     1      18.357  56.947 -19.079  0.00  0.00    +0.000 OA
BRANCH   8  10
ATOM     10  C   UNL     1      17.491  59.134 -19.109  0.00  0.00    +0.000 C 
ATOM     11  C   UNL     1      17.783  59.963 -18.129  0.00  0.00    +0.000 C 
ATOM     12  O   UNL     1      18.589  59.418 -17.122  0.00  0.00    +0.000 OA
BRANCH  11  13
ATOM     13  C   UNL     1      17.068  61.163 -17.789  0.00  0.00    +0.000 C 
ATOM     14  C   UNL     1      15.780  61.366 -17.792  0.00  0.00    +0.000 C 
BRANCH  14  15
ATOM     15  C   UNL     1      15.057  61.876 -16.617  0.00  0.00    +0.000 A 
ATOM     16  C   UNL     1      15.114  61.179 -15.416  0.00  0.00    +0.000 A 
ATOM     17  C   UNL     1      15.346  61.786 -14.202  0.00  0.00    +0.000 A 
ATOM     18  C   UNL     1      15.203  63.169 -14.158  0.00  0.00    +0.000 A 
ATOM     19  O   UNL     1      15.915  63.934 -13.225  0.00  0.00    +0.000 OA
ATOM     20  C   UNL     1      14.767  63.873 -15.277  0.00  0.00    +0.000 A 
ATOM     23  C   UNL     1      14.713  63.218 -16.502  0.00  0.00    +0.000 A 
BRANCH  20  21
ATOM     21  O   UNL     1      13.973  64.984 -14.995  0.00  0.00    +0.000 OA
ATOM     22  C   UNL     1      13.552  65.931 -15.924  0.00  0.00    +0.000 C 
ENDBRANCH  20  21
ENDBRANCH  14  15
ENDBRANCH  11  13
ENDBRANCH   8  10
ENDBRANCH   7   8
ENDBRANCH   5   6
BRANCH  38  39
ATOM     39  C   UNL     1      11.580  60.129 -20.069  0.00  0.00    +0.000 C 
ATOM     40  O   UNL     1      12.206  59.103 -20.481  0.00  0.00    +0.000 OA
BRANCH  39  41
ATOM     41  C   UNL     1      11.681  61.263 -21.008  0.00  0.00    +0.000 C 
ATOM     42  C   UNL     1      12.898  61.653 -21.358  0.00  0.00    +0.000 C 
ATOM     43  O   UNL     1      13.969  60.829 -20.992  0.00  0.00    +0.000 OA
BRANCH  42  44
ATOM     44  C   UNL     1      13.217  62.836 -22.111  0.00  0.00    +0.000 C 
ATOM     45  C   UNL     1      14.327  63.530 -22.056  0.00  0.00    +0.000 C 
BRANCH  45  46
ATOM     46  C   UNL     1      14.334  64.990 -21.950  0.00  0.00    +0.000 A 
ATOM     47  C   UNL     1      13.154  65.661 -21.652  0.00  0.00    +0.000 A 
ATOM     48  C   UNL     1      12.902  66.880 -22.269  0.00  0.00    +0.000 A 
ATOM     49  C   UNL     1      13.830  67.501 -23.090  0.00  0.00    +0.000 A 
ATOM     50  O   UNL     1      13.387  68.266 -24.159  0.00  0.00    +0.000 OA
ATOM     51  C   UNL     1      15.114  66.986 -23.043  0.00  0.00    +0.000 A 
ATOM     54  C   UNL     1      15.373  65.785 -22.392  0.00  0.00    +0.000 A 
BRANCH  51  52
ATOM     52  O   UNL     1      16.112  67.686 -23.727  0.00  0.00    +0.000 OA
ATOM     53  C   UNL     1      16.700  68.803 -23.121  0.00  0.00    +0.000 C 
ENDBRANCH  51  52
ENDBRANCH  45  46
ENDBRANCH  42  44
ENDBRANCH  39  41
ENDBRANCH  38  39
TORSDOF 14
ENDMDL
MODEL 3
REMARK VINA RESULT:      -6.9      2.101      6.719
REMARK  Name = 
REMARK  14 active torsions:
REMARK  status: ('A' for Active; 'I' for Inactive)
REMARK    1  A    between atoms: O_2  and  C_3
REMARK    2  A    between atoms: C_5  and  C_6
REMARK    3  A    between atoms: C_7  and  C_8
REMARK    4  A    between atoms: C_8  and  C_10
REMARK    5  A    between atoms: C_11  and  C_13
REMARK    6  A    between atoms: C_14  and  C_15
REMARK    7  A    between atoms: C_20  and  O_21
REMARK    8  A    between atoms: C_28  and  C_29
REMARK    9  A    between atoms: C_34  and  O_35
REMARK   10  A    between atoms: C_38  and  C_39
REMARK   11  A    between atoms: C_39  and  C_41
REMARK   12  A    between atoms: C_42  and  C_44
REMARK   13  A    between atoms: C_45  and  C_46
REMARK   14  A    between atoms: C_51  and  O_52
REMARK                            x       y       z     vdW  Elec       q    Type
REMARK                         _______ _______ _______ _____ _____    ______ ____
ROOT
ATOM      3  C   UNL     1       0.808  61.260  10.725  0.00  0.00    +0.000 A 
ATOM      4  C   UNL     1       0.522  59.928  11.000  0.00  0.00    +0.000 A 
ATOM      5  C   UNL     1       1.599  59.070  11.201  0.00  0.00    +0.000 A 
ATOM     24  C   UNL     1       2.695  59.360  10.402  0.00  0.00    +0.000 A 
ATOM     25  C   UNL     1       2.752  60.496   9.641  0.00  0.00    +0.000 A 
ATOM     26  C   UNL     1       1.984  61.554  10.041  0.00  0.00    +0.000 A 
ATOM     27  O   UNL     1       2.281  62.728   9.438  0.00  0.00    +0.000 OA
ATOM     28  C   UNL     1       3.400  62.441   8.405  0.00  0.00    +0.000 C 
ATOM     38  C   UNL     1       4.139  61.300   9.497  0.00  0.00    +0.000 C 
ENDROOT
BRANCH  28  29
ATOM     29  C   UNL     1       2.572  61.313   7.557  0.00  0.00    +0.000 A 
ATOM     30  C   UNL     1       3.124  61.311   6.274  0.00  0.00    +0.000 A 
ATOM     31  C   UNL     1       2.350  61.404   5.124  0.00  0.00    +0.000 A 
ATOM     32  C   UNL     1       0.980  61.307   5.232  0.00  0.00    +0.000 A 
ATOM     33  O   UNL     1       0.102  61.746   4.237  0.00  0.00    +0.000 OA
ATOM     34  C   UNL     1       0.443  61.046   6.486  0.00  0.00    +0.000 A 
ATOM     37  C   UNL     1       1.204  61.471   7.542  0.00  0.00    +0.000 A 
BRANCH  34  35
ATOM     35  O   UNL     1      -0.721  60.327   6.558  0.00  0.00    +0.000 OA
ATOM     36  C   UNL     1      -1.368  59.930   7.736  0.00  0.00    +0.000 C 
ENDBRANCH  34  35
ENDBRANCH  28  29
BRANCH   3   2
ATOM      1  C   UNL     1      -0.578  62.453  12.243  0.00  0.00    +0.000 C 
ATOM      2  O   UNL     1      -0.188  62.216  10.932  0.00  0.00    +0.000 OA
ENDBRANCH   3   2
BRANCH   5   6
ATOM      6  C   UNL     1       1.664  58.154  12.347  0.00  0.00    +0.000 C 
ATOM      7  C   UNL     1       0.574  57.756  13.005  0.00  0.00    +0.000 C 
BRANCH   7   8
ATOM      8  C   UNL     1       0.231  56.371  13.247  0.00  0.00    +0.000 C 
ATOM      9  O   UNL     1      -0.516  56.130  14.232  0.00  0.00    +0.000 OA
BRANCH   8  10
ATOM     10  C   UNL     1       0.822  55.246  12.511  0.00  0.00    +0.000 C 
ATOM     11  C   UNL     1       2.030  54.777  12.749  0.00  0.00    +0.000 C 
ATOM     12  O   UNL     1       2.449  54.889  14.081  0.00  0.00    +0.000 OA
BRANCH  11  13
ATOM     13  C   UNL     1       3.064  54.558  11.776  0.00  0.00    +0.000 C 
ATOM     14  C   UNL     1       3.073  54.891  10.516  0.00  0.00    +0.000 C 
BRANCH  14  15
ATOM     15  C   UNL     1       4.156  55.687   9.916  0.00  0.00    +0.000 A 
ATOM     16  C   UNL     1       4.825  56.631  10.686  0.00  0.00    +0.000 A 
ATOM     17  C   UNL     1       6.197  56.752  10.706  0.00  0.00    +0.000 A 
ATOM     18  C   UNL     1       6.895  56.114   9.686  0.00  0.00    +0.000 A 
ATOM     19  O   UNL     1       8.215  55.686   9.879  0.00  0.00    +0.000 OA
ATOM     20  C   UNL     1       6.216  55.462   8.661  0.00  0.00    +0.000 A 
ATOM     23  C   UNL     1       4.850  55.242   8.796  0.00  0.00    +0.000 A 
BRANCH  20  21
ATOM     21  O   UNL     1       6.835  55.529   7.413  0.00  0.00    +0.000 OA
ATOM     22  C   UNL     1       7.193  56.701   6.753  0.00  0.00    +0.000 C 
ENDBRANCH  20  21
ENDBRANCH  14  15
ENDBRANCH  11  13
ENDBRANCH   8  10
ENDBRANCH   7   8
ENDBRANCH   5   6
BRANCH  38  39
ATOM     39  C   UNL     1       4.701  60.370   8.307  0.00  0.00    +0.000 C 
ATOM     40  O   UNL     1       4.484  59.129   8.474  0.00  0.00    +0.000 OA
BRANCH  39  41
ATOM     41  C   UNL     1       6.138  60.674   8.154  0.00  0.00    +0.000 C 
ATOM     42  C   UNL     1       6.706  60.347   7.003  0.00  0.00    +0.000 C 
ATOM     43  O   UNL     1       5.864  59.950   5.957  0.00  0.00    +0.000 OA
BRANCH  42  44
ATOM     44  C   UNL     1       8.116  60.393   6.719  0.00  0.00    +0.000 C 
ATOM     45  C   UNL     1       8.734  59.844   5.702  0.00  0.00    +0.000 C 
BRANCH  45  46
ATOM     46  C   UNL     1       9.961  59.063   5.860  0.00  0.00    +0.000 A 
ATOM     47  C   UNL     1      10.364  58.209   4.841  0.00  0.00    +0.000 A 
ATOM     48  C   UNL     1      10.940  56.989   5.177  0.00  0.00    +0.000 A 
ATOM     49  C   UNL     1      11.220  56.639   6.488  0.00  0.00    +0.000 A 
ATOM     50  O   UNL     1      11.139  55.307   6.867  0.00  0.00    +0.000 OA
ATOM     51  C   UNL     1      11.156  57.667   7.412  0.00  0.00    +0.000 A 
ATOM     54  C   UNL     1      10.615  58.900   7.064  0.00  0.00    +0.000 A 
BRANCH  51  52
ATOM     52  O   UNL     1      11.592  57.391   8.711  0.00  0.00    +0.000 OA
ATOM     53  C   UNL     1      12.917  57.681   9.063  0.00  0.00    +0.000 C 
ENDBRANCH  51  52
ENDBRANCH  45  46
ENDBRANCH  42  44
ENDBRANCH  39  41
ENDBRANCH  38  39
TORSDOF 14
ENDMDL
MODEL 4
REMARK VINA RESULT:      -6.7     26.507     30.040
REMARK  Name = 
REMARK  14 active torsions:
REMARK  status: ('A' for Active; 'I' for Inactive)
REMARK    1  A    between atoms: O_2  and  C_3
REMARK    2  A    between atoms: C_5  and  C_6
REMARK    3  A    between atoms: C_7  and  C_8
REMARK    4  A    between atoms: C_8  and  C_10
REMARK    5  A    between atoms: C_11  and  C_13
REMARK    6  A    between atoms: C_14  and  C_15
REMARK    7  A    between atoms: C_20  and  O_21
REMARK    8  A    between atoms: C_28  and  C_29
REMARK    9  A    between atoms: C_34  and  O_35
REMARK   10  A    between atoms: C_38  and  C_39
REMARK   11  A    between atoms: C_39  and  C_41
REMARK   12  A    between atoms: C_42  and  C_44
REMARK   13  A    between atoms: C_45  and  C_46
REMARK   14  A    between atoms: C_51  and  O_52
REMARK                            x       y       z     vdW  Elec       q    Type
REMARK                         _______ _______ _______ _____ _____    ______ ____
ROOT
ATOM      3  C   UNL     1       6.454  45.061 -13.381  0.00  0.00    +0.000 A 
ATOM      4  C   UNL     1       5.088  45.189 -13.601  0.00  0.00    +0.000 A 
ATOM      5  C   UNL     1       4.336  44.019 -13.661  0.00  0.00    +0.000 A 
ATOM     24  C   UNL     1       5.006  42.960 -14.256  0.00  0.00    +0.000 A 
ATOM     25  C   UNL     1       6.337  43.034 -14.571  0.00  0.00    +0.000 A 
ATOM     26  C   UNL     1       7.096  43.924 -13.864  0.00  0.00    +0.000 A 
ATOM     27  O   UNL     1       8.431  43.765 -14.006  0.00  0.00    +0.000 OA
ATOM     28  C   UNL     1       8.650  42.614 -15.021  0.00  0.00    +0.000 C 
ATOM     38  C   UNL     1       7.285  41.751 -14.361  0.00  0.00    +0.000 C 
ENDROOT
BRANCH  28  29
ATOM     29  C   UNL     1       7.808  43.297 -16.246  0.00  0.00    +0.000 A 
ATOM     30  C   UNL     1       8.301  42.726 -17.421  0.00  0.00    +0.000 A 
ATOM     31  C   UNL     1       8.710  43.485 -18.510  0.00  0.00    +0.000 A 
ATOM     32  C   UNL     1       8.449  44.837 -18.517  0.00  0.00    +0.000 A 
ATOM     33  O   UNL     1       9.117  45.741 -19.350  0.00  0.00    +0.000 OA
ATOM     34  C   UNL     1       7.722  45.365 -17.459  0.00  0.00    +0.000 A 
ATOM     37  C   UNL     1       7.828  44.674 -16.281  0.00  0.00    +0.000 A 
BRANCH  34  35
ATOM     35  O   UNL     1       6.912  46.444 -17.699  0.00  0.00    +0.000 OA
ATOM     36  C   UNL     1       5.790  46.812 -16.945  0.00  0.00    +0.000 C 
ENDBRANCH  34  35
ENDBRANCH  28  29
BRANCH   3   2
ATOM      1  C   UNL     1       6.424  47.284 -12.541  0.00  0.00    +0.000 C 
ATOM      2  O   UNL     1       7.162  46.164 -12.901  0.00  0.00    +0.000 OA
ENDBRANCH   3   2
BRANCH   5   6
ATOM      6  C   UNL     1       3.089  43.853 -12.903  0.00  0.00    +0.000 C 
ATOM      7  C   UNL     1       2.825  42.753 -12.197  0.00  0.00    +0.000 C 
BRANCH   7   8
ATOM      8  C   UNL     1       2.452  42.755 -10.798  0.00  0.00    +0.000 C 
ATOM      9  O   UNL     1       1.857  43.778 -10.366  0.00  0.00    +0.000 OA
BRANCH   8  10
ATOM     10  C   UNL     1       2.863  41.715  -9.847  0.00  0.00    +0.000 C 
ATOM     11  C   UNL     1       2.231  41.476  -8.716  0.00  0.00    +0.000 C 
ATOM     12  O   UNL     1       0.852  41.724  -8.752  0.00  0.00    +0.000 OA
BRANCH  11  13
ATOM     13  C   UNL     1       2.825  41.391  -7.410  0.00  0.00    +0.000 C 
ATOM     14  C   UNL     1       2.380  40.761  -6.359  0.00  0.00    +0.000 C 
BRANCH  14  15
ATOM     15  C   UNL     1       3.192  39.781  -5.622  0.00  0.00    +0.000 A 
ATOM     16  C   UNL     1       4.155  39.038  -6.295  0.00  0.00    +0.000 A 
ATOM     17  C   UNL     1       5.435  38.854  -5.820  0.00  0.00    +0.000 A 
ATOM     18  C   UNL     1       5.655  39.166  -4.481  0.00  0.00    +0.000 A 
ATOM     19  O   UNL     1       6.923  39.560  -4.036  0.00  0.00    +0.000 OA
ATOM     20  C   UNL     1       4.601  39.562  -3.662  0.00  0.00    +0.000 A 
ATOM     23  C   UNL     1       3.381  39.880  -4.248  0.00  0.00    +0.000 A 
BRANCH  20  21
ATOM     21  O   UNL     1       4.699  39.138  -2.338  0.00  0.00    +0.000 OA
ATOM     22  C   UNL     1       3.951  38.116  -1.760  0.00  0.00    +0.000 C 
ENDBRANCH  20  21
ENDBRANCH  14  15
ENDBRANCH  11  13
ENDBRANCH   8  10
ENDBRANCH   7   8
ENDBRANCH   5   6
BRANCH  38  39
ATOM     39  C   UNL     1       6.900  41.076 -15.772  0.00  0.00    +0.000 C 
ATOM     40  O   UNL     1       5.674  41.197 -16.085  0.00  0.00    +0.000 OA
BRANCH  39  41
ATOM     41  C   UNL     1       7.329  39.665 -15.716  0.00  0.00    +0.000 C 
ATOM     42  C   UNL     1       7.463  39.026 -16.869  0.00  0.00    +0.000 C 
ATOM     43  O   UNL     1       7.406  39.791 -18.040  0.00  0.00    +0.000 OA
BRANCH  42  44
ATOM     44  C   UNL     1       7.696  37.615 -17.025  0.00  0.00    +0.000 C 
ATOM     45  C   UNL     1       8.703  37.046 -17.642  0.00  0.00    +0.000 C 
BRANCH  45  46
ATOM     46  C   UNL     1       8.520  35.954 -18.598  0.00  0.00    +0.000 A 
ATOM     47  C   UNL     1       8.437  34.646 -18.137  0.00  0.00    +0.000 A 
ATOM     48  C   UNL     1       9.027  33.633 -18.883  0.00  0.00    +0.000 A 
ATOM     49  C   UNL     1       9.606  33.865 -20.120  0.00  0.00    +0.000 A 
ATOM     50  O   UNL     1      10.701  33.109 -20.511  0.00  0.00    +0.000 OA
ATOM     51  C   UNL     1       9.322  35.092 -20.696  0.00  0.00    +0.000 A 
ATOM     54  C   UNL     1       8.696  36.092 -19.961  0.00  0.00    +0.000 A 
BRANCH  51  52
ATOM     52  O   UNL     1       9.748  35.297 -22.011  0.00  0.00    +0.000 OA
ATOM     53  C   UNL     1       9.891  36.607 -22.487  0.00  0.00    +0.000 C 
ENDBRANCH  51  52
ENDBRANCH  45  46
ENDBRANCH  42  44
ENDBRANCH  39  41
ENDBRANCH  38  39
TORSDOF 14
ENDMDL
MODEL 5
REMARK VINA RESULT:      -6.6     14.457     19.756
REMARK  Name = 
REMARK  14 active torsions:
REMARK  status: ('A' for Active; 'I' for Inactive)
REMARK    1  A    between atoms: O_2  and  C_3
REMARK    2  A    between atoms: C_5  and  C_6
REMARK    3  A    between atoms: C_7  and  C_8
REMARK    4  A    between atoms: C_8  and  C_10
REMARK    5  A    between atoms: C_11  and  C_13
REMARK    6  A    between atoms: C_14  and  C_15
REMARK    7  A    between atoms: C_20  and  O_21
REMARK    8  A    between atoms: C_28  and  C_29
REMARK    9  A    between atoms: C_34  and  O_35
REMARK   10  A    between atoms: C_38  and  C_39
REMARK   11  A    between atoms: C_39  and  C_41
REMARK   12  A    between atoms: C_42  and  C_44
REMARK   13  A    between atoms: C_45  and  C_46
REMARK   14  A    between atoms: C_51  and  O_52
REMARK                            x       y       z     vdW  Elec       q    Type
REMARK                         _______ _______ _______ _____ _____    ______ ____
ROOT
ATOM      3  C   UNL     1      23.007  66.288  14.833  0.00  0.00    +0.000 A 
ATOM      4  C   UNL     1      22.627  65.748  16.056  0.00  0.00    +0.000 A 
ATOM      5  C   UNL     1      21.345  65.215  16.151  0.00  0.00    +0.000 A 
ATOM     24  C   UNL     1      20.399  65.912  15.413  0.00  0.00    +0.000 A 
ATOM     25  C   UNL     1      20.754  66.904  14.539  0.00  0.00    +0.000 A 
ATOM     26  C   UNL     1      22.024  66.865  14.034  0.00  0.00    +0.000 A 
ATOM     27  O   UNL     1      22.237  67.682  12.977  0.00  0.00    +0.000 OA
ATOM     28  C   UNL     1      20.923  68.467  12.734  0.00  0.00    +0.000 C 
ATOM     38  C   UNL     1      19.985  67.052  13.134  0.00  0.00    +0.000 C 
ENDROOT
BRANCH  28  29
ATOM     29  C   UNL     1      20.833  69.126  14.228  0.00  0.00    +0.000 A 
ATOM     30  C   UNL     1      20.054  70.278  14.097  0.00  0.00    +0.000 A 
ATOM     31  C   UNL     1      20.456  71.515  14.586  0.00  0.00    +0.000 A 
ATOM     32  C   UNL     1      21.569  71.584  15.394  0.00  0.00    +0.000 A 
ATOM     33  O   UNL     1      22.269  72.771  15.633  0.00  0.00    +0.000 OA
ATOM     34  C   UNL     1      22.196  70.394  15.741  0.00  0.00    +0.000 A 
ATOM     37  C   UNL     1      22.042  69.374  14.840  0.00  0.00    +0.000 A 
BRANCH  34  35
ATOM     35  O   UNL     1      22.818  70.317  16.959  0.00  0.00    +0.000 OA
ATOM     36  C   UNL     1      24.200  70.392  17.181  0.00  0.00    +0.000 C 
ENDBRANCH  34  35
ENDBRANCH  28  29
BRANCH   3   2
ATOM      1  C   UNL     1      25.102  67.242  15.425  0.00  0.00    +0.000 C 
ATOM      2  O   UNL     1      24.368  66.440  14.561  0.00  0.00    +0.000 OA
ENDBRANCH   3   2
BRANCH   5   6
ATOM      6  C   UNL     1      21.092  63.888  16.726  0.00  0.00    +0.000 C 
ATOM      7  C   UNL     1      19.982  63.606  17.408  0.00  0.00    +0.000 C 
BRANCH   7   8
ATOM      8  C   UNL     1      19.103  62.495  17.108  0.00  0.00    +0.000 C 
ATOM      9  O   UNL     1      18.698  61.807  18.082  0.00  0.00    +0.000 OA
BRANCH   8  10
ATOM     10  C   UNL     1      18.794  62.049  15.744  0.00  0.00    +0.000 C 
ATOM     11  C   UNL     1      19.662  61.432  14.968  0.00  0.00    +0.000 C 
ATOM     12  O   UNL     1      20.592  60.635  15.647  0.00  0.00    +0.000 OA
BRANCH  11  13
ATOM     13  C   UNL     1      20.002  61.792  13.618  0.00  0.00    +0.000 C 
ATOM     14  C   UNL     1      19.991  62.975  13.070  0.00  0.00    +0.000 C 
BRANCH  14  15
ATOM     15  C   UNL     1      21.164  63.538  12.383  0.00  0.00    +0.000 A 
ATOM     16  C   UNL     1      22.437  63.310  12.891  0.00  0.00    +0.000 A 
ATOM     17  C   UNL     1      23.503  62.923  12.111  0.00  0.00    +0.000 A 
ATOM     18  C   UNL     1      23.358  63.075  10.735  0.00  0.00    +0.000 A 
ATOM     19  O   UNL     1      24.059  62.253   9.845  0.00  0.00    +0.000 OA
ATOM     20  C   UNL     1      22.215  63.668  10.204  0.00  0.00    +0.000 A 
ATOM     23  C   UNL     1      21.122  63.880  11.035  0.00  0.00    +0.000 A 
BRANCH  20  21
ATOM     21  O   UNL     1      22.432  64.430   9.057  0.00  0.00    +0.000 OA
ATOM     22  C   UNL     1      23.160  65.615   9.001  0.00  0.00    +0.000 C 
ENDBRANCH  20  21
ENDBRANCH  14  15
ENDBRANCH  11  13
ENDBRANCH   8  10
ENDBRANCH   7   8
ENDBRANCH   5   6
BRANCH  38  39
ATOM     39  C   UNL     1      18.766  67.910  13.747  0.00  0.00    +0.000 C 
ATOM     40  O   UNL     1      18.250  67.400  14.791  0.00  0.00    +0.000 OA
BRANCH  39  41
ATOM     41  C   UNL     1      17.777  68.100  12.668  0.00  0.00    +0.000 C 
ATOM     42  C   UNL     1      17.267  67.010  12.114  0.00  0.00    +0.000 C 
ATOM     43  O   UNL     1      17.534  65.785  12.738  0.00  0.00    +0.000 OA
BRANCH  42  44
ATOM     44  C   UNL     1      16.434  66.974  10.943  0.00  0.00    +0.000 C 
ATOM     45  C   UNL     1      16.142  65.924  10.214  0.00  0.00    +0.000 C 
BRANCH  45  46
ATOM     46  C   UNL     1      16.218  65.938   8.753  0.00  0.00    +0.000 A 
ATOM     47  C   UNL     1      15.176  66.489   8.018  0.00  0.00    +0.000 A 
ATOM     48  C   UNL     1      14.807  65.887   6.822  0.00  0.00    +0.000 A 
ATOM     49  C   UNL     1      15.507  64.819   6.283  0.00  0.00    +0.000 A 
ATOM     50  O   UNL     1      14.823  63.857   5.554  0.00  0.00    +0.000 OA
ATOM     51  C   UNL     1      16.744  64.564   6.850  0.00  0.00    +0.000 A 
ATOM     54  C   UNL     1      17.129  65.196   8.027  0.00  0.00    +0.000 A 
BRANCH  51  52
ATOM     52  O   UNL     1      17.549  63.605   6.228  0.00  0.00    +0.000 OA
ATOM     53  C   UNL     1      18.904  63.886   6.013  0.00  0.00    +0.000 C 
ENDBRANCH  51  52
ENDBRANCH  45  46
ENDBRANCH  42  44
ENDBRANCH  39  41
ENDBRANCH  38  39
TORSDOF 14
ENDMDL
MODEL 6
REMARK VINA RESULT:      -6.5     20.574     26.596
REMARK  Name = 
REMARK  14 active torsions:
REMARK  status: ('A' for Active; 'I' for Inactive)
REMARK    1  A    between atoms: O_2  and  C_3
REMARK    2  A    between atoms: C_5  and  C_6
REMARK    3  A    between atoms: C_7  and  C_8
REMARK    4  A    between atoms: C_8  and  C_10
REMARK    5  A    between atoms: C_11  and  C_13
REMARK    6  A    between atoms: C_14  and  C_15
REMARK    7  A    between atoms: C_20  and  O_21
REMARK    8  A    between atoms: C_28  and  C_29
REMARK    9  A    between atoms: C_34  and  O_35
REMARK   10  A    between atoms: C_38  and  C_39
REMARK   11  A    between atoms: C_39  and  C_41
REMARK   12  A    between atoms: C_42  and  C_44
REMARK   13  A    between atoms: C_45  and  C_46
REMARK   14  A    between atoms: C_51  and  O_52
REMARK                            x       y       z     vdW  Elec       q    Type
REMARK                         _______ _______ _______ _____ _____    ______ ____
ROOT
ATOM      3  C   UNL     1      13.048  65.555 -10.846  0.00  0.00    +0.000 A 
ATOM      4  C   UNL     1      13.951  65.406  -9.800  0.00  0.00    +0.000 A 
ATOM      5  C   UNL     1      15.140  64.736 -10.073  0.00  0.00    +0.000 A 
ATOM     24  C   UNL     1      14.995  63.693 -10.975  0.00  0.00    +0.000 A 
ATOM     25  C   UNL     1      13.825  63.488 -11.658  0.00  0.00    +0.000 A 
ATOM     26  C   UNL     1      13.004  64.567 -11.826  0.00  0.00    +0.000 A 
ATOM     27  O   UNL     1      12.016  64.390 -12.732  0.00  0.00    +0.000 OA
ATOM     28  C   UNL     1      12.122  62.931 -13.245  0.00  0.00    +0.000 C 
ATOM     38  C   UNL     1      13.863  63.024 -13.198  0.00  0.00    +0.000 C 
ENDROOT
BRANCH  28  29
ATOM     29  C   UNL     1      11.977  62.219 -11.779  0.00  0.00    +0.000 A 
ATOM     30  C   UNL     1      11.522  60.921 -12.023  0.00  0.00    +0.000 A 
ATOM     31  C   UNL     1      10.426  60.375 -11.367  0.00  0.00    +0.000 A 
ATOM     32  C   UNL     1       9.877  61.056 -10.303  0.00  0.00    +0.000 A 
ATOM     33  O   UNL     1       8.589  60.807  -9.819  0.00  0.00    +0.000 OA
ATOM     34  C   UNL     1      10.496  62.229  -9.893  0.00  0.00    +0.000 A 
ATOM     37  C   UNL     1      11.190  62.891 -10.870  0.00  0.00    +0.000 A 
BRANCH  34  35
ATOM     35  O   UNL     1      10.438  62.565  -8.566  0.00  0.00    +0.000 OA
ATOM     36  C   UNL     1       9.611  63.547  -8.003  0.00  0.00    +0.000 C 
ENDBRANCH  34  35
ENDBRANCH  28  29
BRANCH   3   2
ATOM      1  C   UNL     1      11.114  66.407  -9.757  0.00  0.00    +0.000 C 
ATOM      2  O   UNL     1      12.072  66.550 -10.752  0.00  0.00    +0.000 OA
ENDBRANCH   3   2
BRANCH   5   6
ATOM      6  C   UNL     1      16.448  65.274  -9.676  0.00  0.00    +0.000 C 
ATOM      7  C   UNL     1      17.542  65.112 -10.421  0.00  0.00    +0.000 C 
BRANCH   7   8
ATOM      8  C   UNL     1      18.394  66.196 -10.861  0.00  0.00    +0.000 C 
ATOM      9  O   UNL     1      19.504  66.324 -10.278  0.00  0.00    +0.000 OA
BRANCH   8  10
ATOM     10  C   UNL     1      17.973  67.222 -11.823  0.00  0.00    +0.000 C 
ATOM     11  C   UNL     1      17.081  68.151 -11.549  0.00  0.00    +0.000 C 
ATOM     12  O   UNL     1      17.053  68.559 -10.209  0.00  0.00    +0.000 OA
BRANCH  11  13
ATOM     13  C   UNL     1      15.921  68.475 -12.334  0.00  0.00    +0.000 C 
ATOM     14  C   UNL     1      15.614  68.061 -13.531  0.00  0.00    +0.000 C 
BRANCH  14  15
ATOM     15  C   UNL     1      14.326  67.419 -13.841  0.00  0.00    +0.000 A 
ATOM     16  C   UNL     1      13.147  68.143 -13.713  0.00  0.00    +0.000 A 
ATOM     17  C   UNL     1      12.157  68.147 -14.670  0.00  0.00    +0.000 A 
ATOM     18  C   UNL     1      12.219  67.148 -15.637  0.00  0.00    +0.000 A 
ATOM     19  O   UNL     1      11.671  67.347 -16.910  0.00  0.00    +0.000 OA
ATOM     20  C   UNL     1      13.194  66.157 -15.571  0.00  0.00    +0.000 A 
ATOM     23  C   UNL     1      14.249  66.313 -14.679  0.00  0.00    +0.000 A 
BRANCH  20  21
ATOM     21  O   UNL     1      12.784  64.902 -16.021  0.00  0.00    +0.000 OA
ATOM     22  C   UNL     1      13.488  64.093 -16.907  0.00  0.00    +0.000 C 
ENDBRANCH  20  21
ENDBRANCH  14  15
ENDBRANCH  11  13
ENDBRANCH   8  10
ENDBRANCH   7   8
ENDBRANCH   5   6
BRANCH  38  39
ATOM     39  C   UNL     1      14.039  61.459 -12.855  0.00  0.00    +0.000 C 
ATOM     40  O   UNL     1      14.940  61.218 -11.992  0.00  0.00    +0.000 OA
BRANCH  39  41
ATOM     41  C   UNL     1      14.278  60.755 -14.130  0.00  0.00    +0.000 C 
ATOM     42  C   UNL     1      15.331  61.130 -14.840  0.00  0.00    +0.000 C 
ATOM     43  O   UNL     1      16.246  61.995 -14.229  0.00  0.00    +0.000 OA
BRANCH  42  44
ATOM     44  C   UNL     1      15.638  60.700 -16.178  0.00  0.00    +0.000 C 
ATOM     45  C   UNL     1      14.814  60.160 -17.041  0.00  0.00    +0.000 C 
BRANCH  45  46
ATOM     46  C   UNL     1      15.157  58.963 -17.810  0.00  0.00    +0.000 A 
ATOM     47  C   UNL     1      15.066  57.714 -17.210  0.00  0.00    +0.000 A 
ATOM     48  C   UNL     1      16.022  56.752 -17.513  0.00  0.00    +0.000 A 
ATOM     49  C   UNL     1      17.003  56.959 -18.470  0.00  0.00    +0.000 A 
ATOM     50  O   UNL     1      18.249  56.373 -18.302  0.00  0.00    +0.000 OA
ATOM     51  C   UNL     1      16.814  58.052 -19.297  0.00  0.00    +0.000 A 
ATOM     54  C   UNL     1      15.831  58.994 -19.015  0.00  0.00    +0.000 A 
BRANCH  51  52
ATOM     52  O   UNL     1      17.689  58.198 -20.377  0.00  0.00    +0.000 OA
ATOM     53  C   UNL     1      17.444  57.483 -21.557  0.00  0.00    +0.000 C 
ENDBRANCH  51  52
ENDBRANCH  45  46
ENDBRANCH  42  44
ENDBRANCH  39  41
ENDBRANCH  38  39
TORSDOF 14
ENDMDL
MODEL 7
REMARK VINA RESULT:      -6.5     18.944     25.790
REMARK  Name = 
REMARK  14 active torsions:
REMARK  status: ('A' for Active; 'I' for Inactive)
REMARK    1  A    between atoms: O_2  and  C_3
REMARK    2  A    between atoms: C_5  and  C_6
REMARK    3  A    between atoms: C_7  and  C_8
REMARK    4  A    between atoms: C_8  and  C_10
REMARK    5  A    between atoms: C_11  and  C_13
REMARK    6  A    between atoms: C_14  and  C_15
REMARK    7  A    between atoms: C_20  and  O_21
REMARK    8  A    between atoms: C_28  and  C_29
REMARK    9  A    between atoms: C_34  and  O_35
REMARK   10  A    between atoms: C_38  and  C_39
REMARK   11  A    between atoms: C_39  and  C_41
REMARK   12  A    between atoms: C_42  and  C_44
REMARK   13  A    between atoms: C_45  and  C_46
REMARK   14  A    between atoms: C_51  and  O_52
REMARK                            x       y       z     vdW  Elec       q    Type
REMARK                         _______ _______ _______ _____ _____    ______ ____
ROOT
ATOM      3  C   UNL     1      14.598  65.008 -13.676  0.00  0.00    +0.000 A 
ATOM      4  C   UNL     1      15.361  64.001 -14.256  0.00  0.00    +0.000 A 
ATOM      5  C   UNL     1      14.850  62.707 -14.216  0.00  0.00    +0.000 A 
ATOM     24  C   UNL     1      14.154  62.421 -13.051  0.00  0.00    +0.000 A 
ATOM     25  C   UNL     1      13.853  63.393 -12.134  0.00  0.00    +0.000 A 
ATOM     26  C   UNL     1      13.793  64.681 -12.588  0.00  0.00    +0.000 A 
ATOM     27  O   UNL     1      13.225  65.557 -11.729  0.00  0.00    +0.000 OA
ATOM     28  C   UNL     1      12.879  64.773 -10.438  0.00  0.00    +0.000 C 
ATOM     38  C   UNL     1      12.429  63.380 -11.385  0.00  0.00    +0.000 C 
ENDROOT
BRANCH  28  29
ATOM     29  C   UNL     1      14.400  64.255 -10.135  0.00  0.00    +0.000 A 
ATOM     30  C   UNL     1      14.469  64.039  -8.756  0.00  0.00    +0.000 A 
ATOM     31  C   UNL     1      15.482  64.565  -7.964  0.00  0.00    +0.000 A 
ATOM     32  C   UNL     1      16.564  65.161  -8.573  0.00  0.00    +0.000 A 
ATOM     33  O   UNL     1      17.434  66.029  -7.907  0.00  0.00    +0.000 OA
ATOM     34  C   UNL     1      16.622  65.143  -9.961  0.00  0.00    +0.000 A 
ATOM     37  C   UNL     1      15.407  65.077 -10.590  0.00  0.00    +0.000 A 
BRANCH  34  35
ATOM     35  O   UNL     1      17.853  65.100 -10.560  0.00  0.00    +0.000 OA
ATOM     36  C   UNL     1      18.370  66.059 -11.442  0.00  0.00    +0.000 C 
ENDBRANCH  34  35
ENDBRANCH  28  29
BRANCH   3   2
ATOM      1  C   UNL     1      14.126  66.828 -15.129  0.00  0.00    +0.000 C 
ATOM      2  O   UNL     1      14.841  66.331 -14.048  0.00  0.00    +0.000 OA
ENDBRANCH   3   2
BRANCH   5   6
ATOM      6  C   UNL     1      14.801  61.850 -15.408  0.00  0.00    +0.000 C 
ATOM      7  C   UNL     1      15.703  61.935 -16.385  0.00  0.00    +0.000 C 
BRANCH   7   8
ATOM      8  C   UNL     1      16.466  60.811 -16.888  0.00  0.00    +0.000 C 
ATOM      9  O   UNL     1      17.624  61.054 -17.319  0.00  0.00    +0.000 OA
BRANCH   8  10
ATOM     10  C   UNL     1      15.910  59.463 -17.058  0.00  0.00    +0.000 C 
ATOM     11  C   UNL     1      15.048  59.148 -18.002  0.00  0.00    +0.000 C 
ATOM     12  O   UNL     1      15.187  59.877 -19.190  0.00  0.00    +0.000 OA
BRANCH  11  13
ATOM     13  C   UNL     1      13.792  58.473 -17.816  0.00  0.00    +0.000 C 
ATOM     14  C   UNL     1      13.397  57.767 -16.794  0.00  0.00    +0.000 C 
BRANCH  14  15
ATOM     15  C   UNL     1      12.138  58.040 -16.083  0.00  0.00    +0.000 A 
ATOM     16  C   UNL     1      11.598  57.074 -15.242  0.00  0.00    +0.000 A 
ATOM     17  C   UNL     1      11.125  57.351 -13.979  0.00  0.00    +0.000 A 
ATOM     18  C   UNL     1      10.904  58.691 -13.676  0.00  0.00    +0.000 A 
ATOM     19  O   UNL     1      10.978  59.149 -12.354  0.00  0.00    +0.000 OA
ATOM     20  C   UNL     1      11.079  59.676 -14.644  0.00  0.00    +0.000 A 
ATOM     23  C   UNL     1      11.711  59.339 -15.836  0.00  0.00    +0.000 A 
BRANCH  20  21
ATOM     21  O   UNL     1      10.194  60.750 -14.552  0.00  0.00    +0.000 OA
ATOM     22  C   UNL     1      10.558  62.083 -14.385  0.00  0.00    +0.000 C 
ENDBRANCH  20  21
ENDBRANCH  14  15
ENDBRANCH  11  13
ENDBRANCH   8  10
ENDBRANCH   7   8
ENDBRANCH   5   6
BRANCH  38  39
ATOM     39  C   UNL     1      12.892  62.332 -10.251  0.00  0.00    +0.000 C 
ATOM     40  O   UNL     1      13.664  61.417 -10.678  0.00  0.00    +0.000 OA
BRANCH  39  41
ATOM     41  C   UNL     1      11.668  61.790  -9.628  0.00  0.00    +0.000 C 
ATOM     42  C   UNL     1      11.791  61.249  -8.425  0.00  0.00    +0.000 C 
ATOM     43  O   UNL     1      13.006  61.433  -7.756  0.00  0.00    +0.000 OA
BRANCH  42  44
ATOM     44  C   UNL     1      10.770  60.514  -7.727  0.00  0.00    +0.000 C 
ATOM     45  C   UNL     1      10.924  59.405  -7.046  0.00  0.00    +0.000 C 
BRANCH  45  46
ATOM     46  C   UNL     1      10.027  58.259  -7.202  0.00  0.00    +0.000 A 
ATOM     47  C   UNL     1      10.455  56.996  -6.813  0.00  0.00    +0.000 A 
ATOM     48  C   UNL     1      10.084  55.897  -7.577  0.00  0.00    +0.000 A 
ATOM     49  C   UNL     1       9.218  56.002  -8.654  0.00  0.00    +0.000 A 
ATOM     50  O   UNL     1       9.377  55.152  -9.739  0.00  0.00    +0.000 OA
ATOM     51  C   UNL     1       8.529  57.198  -8.757  0.00  0.00    +0.000 A 
ATOM     54  C   UNL     1       8.876  58.286  -7.964  0.00  0.00    +0.000 A 
BRANCH  51  52
ATOM     52  O   UNL     1       7.527  57.280  -9.728  0.00  0.00    +0.000 OA
ATOM     53  C   UNL     1       6.201  57.481  -9.326  0.00  0.00    +0.000 C 
ENDBRANCH  51  52
ENDBRANCH  45  46
ENDBRANCH  42  44
ENDBRANCH  39  41
ENDBRANCH  38  39
TORSDOF 14
ENDMDL
MODEL 8
REMARK VINA RESULT:      -6.5     21.846     27.447
REMARK  Name = 
REMARK  14 active torsions:
REMARK  status: ('A' for Active; 'I' for Inactive)
REMARK    1  A    between atoms: O_2  and  C_3
REMARK    2  A    between atoms: C_5  and  C_6
REMARK    3  A    between atoms: C_7  and  C_8
REMARK    4  A    between atoms: C_8  and  C_10
REMARK    5  A    between atoms: C_11  and  C_13
REMARK    6  A    between atoms: C_14  and  C_15
REMARK    7  A    between atoms: C_20  and  O_21
REMARK    8  A    between atoms: C_28  and  C_29
REMARK    9  A    between atoms: C_34  and  O_35
REMARK   10  A    between atoms: C_38  and  C_39
REMARK   11  A    between atoms: C_39  and  C_41
REMARK   12  A    between atoms: C_42  and  C_44
REMARK   13  A    between atoms: C_45  and  C_46
REMARK   14  A    between atoms: C_51  and  O_52
REMARK                            x       y       z     vdW  Elec       q    Type
REMARK                         _______ _______ _______ _____ _____    ______ ____
ROOT
ATOM      3  C   UNL     1      12.734  64.794 -11.611  0.00  0.00    +0.000 A 
ATOM      4  C   UNL     1      13.478  64.615 -10.452  0.00  0.00    +0.000 A 
ATOM      5  C   UNL     1      14.832  64.329 -10.598  0.00  0.00    +0.000 A 
ATOM     24  C   UNL     1      15.115  63.530 -11.696  0.00  0.00    +0.000 A 
ATOM     25  C   UNL     1      14.162  63.226 -12.631  0.00  0.00    +0.000 A 
ATOM     26  C   UNL     1      13.109  64.090 -12.752  0.00  0.00    +0.000 A 
ATOM     27  O   UNL     1      12.354  63.909 -13.859  0.00  0.00    +0.000 OA
ATOM     28  C   UNL     1      12.932  62.684 -14.612  0.00  0.00    +0.000 C 
ATOM     38  C   UNL     1      14.554  63.169 -14.190  0.00  0.00    +0.000 C 
ENDROOT
BRANCH  28  29
ATOM     29  C   UNL     1      12.773  61.626 -13.375  0.00  0.00    +0.000 A 
ATOM     30  C   UNL     1      12.630  60.366 -13.958  0.00  0.00    +0.000 A 
ATOM     31  C   UNL     1      11.605  59.492 -13.617  0.00  0.00    +0.000 A 
ATOM     32  C   UNL     1      10.808  59.790 -12.534  0.00  0.00    +0.000 A 
ATOM     33  O   UNL     1       9.554  59.207 -12.324  0.00  0.00    +0.000 OA
ATOM     34  C   UNL     1      11.117  60.920 -11.789  0.00  0.00    +0.000 A 
ATOM     37  C   UNL     1      11.765  61.910 -12.480  0.00  0.00    +0.000 A 
BRANCH  34  35
ATOM     35  O   UNL     1      10.840  60.911 -10.448  0.00  0.00    +0.000 OA
ATOM     36  C   UNL     1       9.948  61.769  -9.788  0.00  0.00    +0.000 C 
ENDBRANCH  34  35
ENDBRANCH  28  29
BRANCH   3   2
ATOM      1  C   UNL     1      10.944  65.601 -10.272  0.00  0.00    +0.000 C 
ATOM      2  O   UNL     1      11.519  65.479 -11.529  0.00  0.00    +0.000 OA
ENDBRANCH   3   2
BRANCH   5   6
ATOM      6  C   UNL     1      15.868  65.048  -9.844  0.00  0.00    +0.000 C 
ATOM      7  C   UNL     1      17.169  64.827 -10.031  0.00  0.00    +0.000 C 
BRANCH   7   8
ATOM      8  C   UNL     1      18.136  65.864 -10.326  0.00  0.00    +0.000 C 
ATOM      9  O   UNL     1      18.851  66.267  -9.370  0.00  0.00    +0.000 OA
BRANCH   8  10
ATOM     10  C   UNL     1      18.213  66.561 -11.616  0.00  0.00    +0.000 C 
ATOM     11  C   UNL     1      17.279  67.378 -12.056  0.00  0.00    +0.000 C 
ATOM     12  O   UNL     1      16.592  68.077 -11.054  0.00  0.00    +0.000 OA
BRANCH  11  13
ATOM     13  C   UNL     1      16.641  67.327 -13.343  0.00  0.00    +0.000 C 
ATOM     14  C   UNL     1      15.571  66.666 -13.689  0.00  0.00    +0.000 C 
BRANCH  14  15
ATOM     15  C   UNL     1      14.415  67.313 -14.330  0.00  0.00    +0.000 A 
ATOM     16  C   UNL     1      14.051  66.951 -15.622  0.00  0.00    +0.000 A 
ATOM     17  C   UNL     1      12.752  66.686 -15.994  0.00  0.00    +0.000 A 
ATOM     18  C   UNL     1      11.755  67.103 -15.117  0.00  0.00    +0.000 A 
ATOM     19  O   UNL     1      10.520  66.443 -15.070  0.00  0.00    +0.000 OA
ATOM     20  C   UNL     1      12.074  67.822 -13.969  0.00  0.00    +0.000 A 
ATOM     23  C   UNL     1      13.407  67.906 -13.580  0.00  0.00    +0.000 A 
BRANCH  20  21
ATOM     21  O   UNL     1      11.133  68.782 -13.599  0.00  0.00    +0.000 OA
ATOM     22  C   UNL     1      10.414  68.789 -12.407  0.00  0.00    +0.000 C 
ENDBRANCH  20  21
ENDBRANCH  14  15
ENDBRANCH  11  13
ENDBRANCH   8  10
ENDBRANCH   7   8
ENDBRANCH   5   6
BRANCH  38  39
ATOM     39  C   UNL     1      15.100  61.655 -14.129  0.00  0.00    +0.000 C 
ATOM     40  O   UNL     1      15.721  61.373 -13.057  0.00  0.00    +0.000 OA
BRANCH  39  41
ATOM     41  C   UNL     1      15.928  61.438 -15.332  0.00  0.00    +0.000 C 
ATOM     42  C   UNL     1      15.772  60.290 -15.974  0.00  0.00    +0.000 C 
ATOM     43  O   UNL     1      14.692  59.482 -15.599  0.00  0.00    +0.000 OA
BRANCH  42  44
ATOM     44  C   UNL     1      16.597  59.811 -17.051  0.00  0.00    +0.000 C 
ATOM     45  C   UNL     1      16.662  60.293 -18.268  0.00  0.00    +0.000 C 
BRANCH  45  46
ATOM     46  C   UNL     1      16.615  59.436 -19.454  0.00  0.00    +0.000 A 
ATOM     47  C   UNL     1      16.828  58.070 -19.321  0.00  0.00    +0.000 A 
ATOM     48  C   UNL     1      17.539  57.402 -20.310  0.00  0.00    +0.000 A 
ATOM     49  C   UNL     1      17.954  58.028 -21.474  0.00  0.00    +0.000 A 
ATOM     50  O   UNL     1      19.139  57.628 -22.075  0.00  0.00    +0.000 OA
ATOM     51  C   UNL     1      17.389  59.267 -21.725  0.00  0.00    +0.000 A 
ATOM     54  C   UNL     1      16.645  59.917 -20.748  0.00  0.00    +0.000 A 
BRANCH  51  52
ATOM     52  O   UNL     1      17.654  59.853 -22.966  0.00  0.00    +0.000 OA
ATOM     53  C   UNL     1      16.854  59.516 -24.066  0.00  0.00    +0.000 C 
ENDBRANCH  51  52
ENDBRANCH  45  46
ENDBRANCH  42  44
ENDBRANCH  39  41
ENDBRANCH  38  39
TORSDOF 14
ENDMDL
MODEL 9
REMARK VINA RESULT:      -6.4     15.034     19.380
REMARK  Name = 
REMARK  14 active torsions:
REMARK  status: ('A' for Active; 'I' for Inactive)
REMARK    1  A    between atoms: O_2  and  C_3
REMARK    2  A    between atoms: C_5  and  C_6
REMARK    3  A    between atoms: C_7  and  C_8
REMARK    4  A    between atoms: C_8  and  C_10
REMARK    5  A    between atoms: C_11  and  C_13
REMARK    6  A    between atoms: C_14  and  C_15
REMARK    7  A    between atoms: C_20  and  O_21
REMARK    8  A    between atoms: C_28  and  C_29
REMARK    9  A    between atoms: C_34  and  O_35
REMARK   10  A    between atoms: C_38  and  C_39
REMARK   11  A    between atoms: C_39  and  C_41
REMARK   12  A    between atoms: C_42  and  C_44
REMARK   13  A    between atoms: C_45  and  C_46
REMARK   14  A    between atoms: C_51  and  O_52
REMARK                            x       y       z     vdW  Elec       q    Type
REMARK                         _______ _______ _______ _____ _____    ______ ____
ROOT
ATOM      3  C   UNL     1      21.425  65.227   8.163  0.00  0.00    +0.000 A 
ATOM      4  C   UNL     1      20.157  64.953   7.663  0.00  0.00    +0.000 A 
ATOM      5  C   UNL     1      19.068  65.304   8.455  0.00  0.00    +0.000 A 
ATOM     24  C   UNL     1      19.293  65.139   9.813  0.00  0.00    +0.000 A 
ATOM     25  C   UNL     1      20.535  64.841  10.307  0.00  0.00    +0.000 A 
ATOM     26  C   UNL     1      21.611  65.194   9.542  0.00  0.00    +0.000 A 
ATOM     27  O   UNL     1      22.802  65.141  10.181  0.00  0.00    +0.000 OA
ATOM     28  C   UNL     1      22.529  64.609  11.612  0.00  0.00    +0.000 C 
ATOM     38  C   UNL     1      21.038  65.512  11.680  0.00  0.00    +0.000 C 
ENDROOT
BRANCH  28  29
ATOM     29  C   UNL     1      21.826  63.207  11.147  0.00  0.00    +0.000 A 
ATOM     30  C   UNL     1      21.916  62.347  12.244  0.00  0.00    +0.000 A 
ATOM     31  C   UNL     1      22.414  61.054  12.144  0.00  0.00    +0.000 A 
ATOM     32  C   UNL     1      22.654  60.525  10.895  0.00  0.00    +0.000 A 
ATOM     33  O   UNL     1      23.478  59.417  10.679  0.00  0.00    +0.000 OA
ATOM     34  C   UNL     1      22.315  61.292   9.788  0.00  0.00    +0.000 A 
ATOM     37  C   UNL     1      22.330  62.646   9.995  0.00  0.00    +0.000 A 
BRANCH  34  35
ATOM     35  O   UNL     1      21.918  60.648   8.647  0.00  0.00    +0.000 OA
ATOM     36  C   UNL     1      22.598  60.657   7.420  0.00  0.00    +0.000 C 
ENDBRANCH  34  35
ENDBRANCH  28  29
BRANCH   3   2
ATOM      1  C   UNL     1      22.631  64.248   6.364  0.00  0.00    +0.000 C 
ATOM      2  O   UNL     1      22.497  65.291   7.270  0.00  0.00    +0.000 OA
ENDBRANCH   3   2
BRANCH   5   6
ATOM      6  C   UNL     1      17.922  66.051   7.919  0.00  0.00    +0.000 C 
ATOM      7  C   UNL     1      16.684  65.555   7.919  0.00  0.00    +0.000 C 
BRANCH   7   8
ATOM      8  C   UNL     1      15.535  66.235   8.479  0.00  0.00    +0.000 C 
ATOM      9  O   UNL     1      14.742  66.781   7.667  0.00  0.00    +0.000 OA
BRANCH   8  10
ATOM     10  C   UNL     1      15.338  66.447   9.918  0.00  0.00    +0.000 C 
ATOM     11  C   UNL     1      15.942  67.398  10.601  0.00  0.00    +0.000 C 
ATOM     12  O   UNL     1      16.212  68.563   9.870  0.00  0.00    +0.000 OA
BRANCH  11  13
ATOM     13  C   UNL     1      16.682  67.230  11.822  0.00  0.00    +0.000 C 
ATOM     14  C   UNL     1      17.958  67.407  12.024  0.00  0.00    +0.000 C 
BRANCH  14  15
ATOM     15  C   UNL     1      18.477  68.287  13.083  0.00  0.00    +0.000 A 
ATOM     16  C   UNL     1      18.446  67.865  14.407  0.00  0.00    +0.000 A 
ATOM     17  C   UNL     1      19.518  67.986  15.263  0.00  0.00    +0.000 A 
ATOM     18  C   UNL     1      20.542  68.840  14.864  0.00  0.00    +0.000 A 
ATOM     19  O   UNL     1      21.856  68.639  15.304  0.00  0.00    +0.000 OA
ATOM     20  C   UNL     1      20.428  69.587  13.694  0.00  0.00    +0.000 A 
ATOM     23  C   UNL     1      19.399  69.290  12.807  0.00  0.00    +0.000 A 
BRANCH  20  21
ATOM     21  O   UNL     1      21.019  70.848  13.746  0.00  0.00    +0.000 OA
ATOM     22  C   UNL     1      20.837  71.783  14.761  0.00  0.00    +0.000 C 
ENDBRANCH  20  21
ENDBRANCH  14  15
ENDBRANCH  11  13
ENDBRANCH   8  10
ENDBRANCH   7   8
ENDBRANCH   5   6
BRANCH  38  39
ATOM     39  C   UNL     1      20.308  64.431  12.625  0.00  0.00    +0.000 C 
ATOM     40  O   UNL     1      19.071  64.278  12.375  0.00  0.00    +0.000 OA
BRANCH  39  41
ATOM     41  C   UNL     1      20.553  64.833  14.024  0.00  0.00    +0.000 C 
ATOM     42  C   UNL     1      20.056  64.054  14.973  0.00  0.00    +0.000 C 
ATOM     43  O   UNL     1      19.539  62.813  14.585  0.00  0.00    +0.000 OA
BRANCH  42  44
ATOM     44  C   UNL     1      20.028  64.357  16.379  0.00  0.00    +0.000 C 
ATOM     45  C   UNL     1      20.770  65.233  17.011  0.00  0.00    +0.000 C 
BRANCH  45  46
ATOM     46  C   UNL     1      21.457  64.919  18.265  0.00  0.00    +0.000 A 
ATOM     47  C   UNL     1      21.379  63.634  18.786  0.00  0.00    +0.000 A 
ATOM     48  C   UNL     1      21.286  63.472  20.162  0.00  0.00    +0.000 A 
ATOM     49  C   UNL     1      21.371  64.541  21.041  0.00  0.00    +0.000 A 
ATOM     50  O   UNL     1      20.651  64.506  22.226  0.00  0.00    +0.000 OA
ATOM     51  C   UNL     1      21.830  65.729  20.499  0.00  0.00    +0.000 A 
ATOM     54  C   UNL     1      21.960  65.877  19.123  0.00  0.00    +0.000 A 
BRANCH  51  52
ATOM     52  O   UNL     1      22.088  66.780  21.384  0.00  0.00    +0.000 OA
ATOM     53  C   UNL     1      21.350  67.965  21.270  0.00  0.00    +0.000 C 
ENDBRANCH  51  52
ENDBRANCH  45  46
ENDBRANCH  42  44
ENDBRANCH  39  41
ENDBRANCH  38  39
TORSDOF 14
ENDMDL
MODEL 10
REMARK VINA RESULT:      -6.4     10.407     16.446
REMARK  Name = 
REMARK  14 active torsions:
REMARK  status: ('A' for Active; 'I' for Inactive)
REMARK    1  A    between atoms: O_2  and  C_3
REMARK    2  A    between atoms: C_5  and  C_6
REMARK    3  A    between atoms: C_7  and  C_8
REMARK    4  A    between atoms: C_8  and  C_10
REMARK    5  A    between atoms: C_11  and  C_13
REMARK    6  A    between atoms: C_14  and  C_15
REMARK    7  A    between atoms: C_20  and  O_21
REMARK    8  A    between atoms: C_28  and  C_29
REMARK    9  A    between atoms: C_34  and  O_35
REMARK   10  A    between atoms: C_38  and  C_39
REMARK   11  A    between atoms: C_39  and  C_41
REMARK   12  A    between atoms: C_42  and  C_44
REMARK   13  A    between atoms: C_45  and  C_46
REMARK   14  A    between atoms: C_51  and  O_52
REMARK                            x       y       z     vdW  Elec       q    Type
REMARK                         _______ _______ _______ _____ _____    ______ ____
ROOT
ATOM      3  C   UNL     1       8.884  54.465  23.696  0.00  0.00    +0.000 A 
ATOM      4  C   UNL     1       8.606  53.538  24.693  0.00  0.00    +0.000 A 
ATOM      5  C   UNL     1       8.199  52.269  24.293  0.00  0.00    +0.000 A 
ATOM     24  C   UNL     1       7.406  52.274  23.155  0.00  0.00    +0.000 A 
ATOM     25  C   UNL     1       7.217  53.409  22.413  0.00  0.00    +0.000 A 
ATOM     26  C   UNL     1       8.178  54.377  22.499  0.00  0.00    +0.000 A 
ATOM     27  O   UNL     1       8.097  55.340  21.552  0.00  0.00    +0.000 OA
ATOM     28  C   UNL     1       6.844  55.032  20.694  0.00  0.00    +0.000 C 
ATOM     38  C   UNL     1       7.165  53.322  20.807  0.00  0.00    +0.000 C 
ENDROOT
BRANCH  28  29
ATOM     29  C   UNL     1       5.773  55.059  21.930  0.00  0.00    +0.000 A 
ATOM     30  C   UNL     1       4.521  55.280  21.353  0.00  0.00    +0.000 A 
ATOM     31  C   UNL     1       3.652  56.268  21.801  0.00  0.00    +0.000 A 
ATOM     32  C   UNL     1       3.944  56.933  22.971  0.00  0.00    +0.000 A 
ATOM     33  O   UNL     1       3.370  58.160  23.317  0.00  0.00    +0.000 OA
ATOM     34  C   UNL     1       5.063  56.529  23.688  0.00  0.00    +0.000 A 
ATOM     37  C   UNL     1       6.055  55.955  22.938  0.00  0.00    +0.000 A 
BRANCH  34  35
ATOM     35  O   UNL     1       5.041  56.651  25.052  0.00  0.00    +0.000 OA
ATOM     36  C   UNL     1       5.725  55.831  25.960  0.00  0.00    +0.000 C 
ENDBRANCH  34  35
ENDBRANCH  28  29
BRANCH   3   2
ATOM      1  C   UNL     1      10.556  55.438  25.076  0.00  0.00    +0.000 C 
ATOM      2  O   UNL     1       9.676  55.571  24.011  0.00  0.00    +0.000 OA
ENDBRANCH   3   2
BRANCH   5   6
ATOM      6  C   UNL     1       8.799  51.047  24.844  0.00  0.00    +0.000 C 
ATOM      7  C   UNL     1      10.021  51.029  25.377  0.00  0.00    +0.000 C 
BRANCH   7   8
ATOM      8  C   UNL     1      10.324  50.529  26.702  0.00  0.00    +0.000 C 
ATOM      9  O   UNL     1      11.223  51.130  27.348  0.00  0.00    +0.000 OA
BRANCH   8  10
ATOM     10  C   UNL     1       9.757  49.292  27.252  0.00  0.00    +0.000 C 
ATOM     11  C   UNL     1      10.063  48.091  26.804  0.00  0.00    +0.000 C 
ATOM     12  O   UNL     1      11.367  47.967  26.306  0.00  0.00    +0.000 OA
BRANCH  11  13
ATOM     13  C   UNL     1       9.134  47.068  26.409  0.00  0.00    +0.000 C 
ATOM     14  C   UNL     1       8.560  46.901  25.251  0.00  0.00    +0.000 C 
BRANCH  14  15
ATOM     15  C   UNL     1       8.628  45.630  24.511  0.00  0.00    +0.000 A 
ATOM     16  C   UNL     1       9.346  44.563  25.038  0.00  0.00    +0.000 A 
ATOM     17  C   UNL     1       8.859  43.276  25.083  0.00  0.00    +0.000 A 
ATOM     18  C   UNL     1       7.748  43.000  24.292  0.00  0.00    +0.000 A 
ATOM     19  O   UNL     1       6.852  41.983  24.644  0.00  0.00    +0.000 OA
ATOM     20  C   UNL     1       7.223  43.970  23.443  0.00  0.00    +0.000 A 
ATOM     23  C   UNL     1       7.661  45.283  23.574  0.00  0.00    +0.000 A 
BRANCH  20  21
ATOM     21  O   UNL     1       6.699  43.480  22.248  0.00  0.00    +0.000 OA
ATOM     22  C   UNL     1       5.897  44.196  21.365  0.00  0.00    +0.000 C 
ENDBRANCH  20  21
ENDBRANCH  14  15
ENDBRANCH  11  13
ENDBRANCH   8  10
ENDBRANCH   7   8
ENDBRANCH   5   6
BRANCH  38  39
ATOM     39  C   UNL     1       5.606  52.922  20.752  0.00  0.00    +0.000 C 
ATOM     40  O   UNL     1       5.279  52.003  21.567  0.00  0.00    +0.000 OA
BRANCH  39  41
ATOM     41  C   UNL     1       5.292  52.570  19.353  0.00  0.00    +0.000 C 
ATOM     42  C   UNL     1       4.013  52.432  19.036  0.00  0.00    +0.000 C 
ATOM     43  O   UNL     1       3.066  52.844  19.981  0.00  0.00    +0.000 OA
BRANCH  42  44
ATOM     44  C   UNL     1       3.506  51.926  17.789  0.00  0.00    +0.000 C 
ATOM     45  C   UNL     1       3.687  52.441  16.597  0.00  0.00    +0.000 C 
BRANCH  45  46
ATOM     46  C   UNL     1       2.588  52.623  15.648  0.00  0.00    +0.000 A 
ATOM     47  C   UNL     1       1.295  52.278  16.022  0.00  0.00    +0.000 A 
ATOM     48  C   UNL     1       0.456  51.698  15.079  0.00  0.00    +0.000 A 
ATOM     49  C   UNL     1       0.826  51.545  13.752  0.00  0.00    +0.000 A 
ATOM     50  O   UNL     1       0.353  50.455  13.037  0.00  0.00    +0.000 OA
ATOM     51  C   UNL     1       1.954  52.245  13.358  0.00  0.00    +0.000 A 
ATOM     54  C   UNL     1       2.772  52.859  14.300  0.00  0.00    +0.000 A 
BRANCH  51  52
ATOM     52  O   UNL     1       2.262  52.249  11.995  0.00  0.00    +0.000 OA
ATOM     53  C   UNL     1       3.555  52.602  11.588  0.00  0.00    +0.000 C 
ENDBRANCH  51  52
ENDBRANCH  45  46
ENDBRANCH  42  44
ENDBRANCH  39  41
ENDBRANCH  38  39
TORSDOF 14
ENDMDL
