MODEL 1
REMARK VINA RESULT:      -5.9      0.000      0.000
REMARK  Name = 
REMARK  9 active torsions:
REMARK  status: ('A' for Active; 'I' for Inactive)
REMARK    1  A    between atoms: O_2  and  C_3
REMARK    2  A    between atoms: C_5  and  C_6
REMARK    3  A    between atoms: C_6  and  C_7
REMARK    4  A    between atoms: C_8  and  C_9
REMARK    5  A    between atoms: C_9  and  C_11
REMARK    6  A    between atoms: C_11  and  C_12
REMARK    7  A    between atoms: C_12  and  C_14
REMARK    8  A    between atoms: C_15  and  C_16
REMARK    9  A    between atoms: C_16  and  C_17
REMARK                            x       y       z     vdW  Elec       q    Type
REMARK                         _______ _______ _______ _____ _____    ______ ____
ROOT
ATOM      9  C   UNL     1      29.578  83.628 -28.658  0.00  0.00    +0.000 C 
ATOM     10  O   UNL     1      30.214  84.629 -28.222  0.00  0.00    +0.000 OA
ENDROOT
BRANCH   9   8
ATOM      7  C   UNL     1      28.882  83.385 -30.989  0.00  0.00    +0.000 C 
ATOM      8  C   UNL     1      28.622  83.798 -29.758  0.00  0.00    +0.000 C 
BRANCH   7   6
ATOM      6  C   UNL     1      27.824  82.823 -31.851  0.00  0.00    +0.000 C 
BRANCH   6   5
ATOM      3  C   UNL     1      28.873  79.221 -31.970  0.00  0.00    +0.000 A 
ATOM      4  C   UNL     1      28.503  80.471 -32.446  0.00  0.00    +0.000 A 
ATOM      5  C   UNL     1      27.712  81.339 -31.718  0.00  0.00    +0.000 A 
ATOM     24  C   UNL     1      26.946  80.787 -30.700  0.00  0.00    +0.000 A 
ATOM     25  C   UNL     1      27.317  79.554 -30.184  0.00  0.00    +0.000 A 
ATOM     26  C   UNL     1      28.326  78.805 -30.768  0.00  0.00    +0.000 A 
ATOM     27  O   UNL     1      28.981  77.881 -29.952  0.00  0.00    +0.000 OA
BRANCH   3   2
ATOM      1  C   UNL     1      30.859  79.067 -33.419  0.00  0.00    +0.000 C 
ATOM      2  O   UNL     1      30.069  78.607 -32.342  0.00  0.00    +0.000 OA
ENDBRANCH   3   2
ENDBRANCH   6   5
ENDBRANCH   7   6
ENDBRANCH   9   8
BRANCH   9  11
ATOM     11  C   UNL     1      29.867  82.272 -28.100  0.00  0.00    +0.000 C 
BRANCH  11  12
ATOM     12  C   UNL     1      29.039  82.158 -26.857  0.00  0.00    +0.000 C 
ATOM     13  O   UNL     1      29.699  82.067 -25.777  0.00  0.00    +0.000 OA
BRANCH  12  14
ATOM     14  C   UNL     1      27.883  81.257 -26.948  0.00  0.00    +0.000 C 
ATOM     15  C   UNL     1      26.666  81.753 -26.937  0.00  0.00    +0.000 C 
BRANCH  15  16
ATOM     16  C   UNL     1      26.388  83.101 -26.367  0.00  0.00    +0.000 C 
BRANCH  16  17
ATOM     17  C   UNL     1      26.075  83.017 -24.907  0.00  0.00    +0.000 A 
ATOM     18  C   UNL     1      25.268  82.035 -24.375  0.00  0.00    +0.000 A 
ATOM     19  C   UNL     1      25.484  81.661 -23.054  0.00  0.00    +0.000 A 
ATOM     20  C   UNL     1      26.426  82.320 -22.274  0.00  0.00    +0.000 A 
ATOM     21  O   UNL     1      27.029  81.688 -21.191  0.00  0.00    +0.000 OA
ATOM     22  C   UNL     1      27.084  83.443 -22.759  0.00  0.00    +0.000 A 
ATOM     23  C   UNL     1      26.662  83.894 -24.005  0.00  0.00    +0.000 A 
ENDBRANCH  16  17
ENDBRANCH  15  16
ENDBRANCH  12  14
ENDBRANCH  11  12
ENDBRANCH   9  11
TORSDOF 9
ENDMDL
MODEL 2
REMARK VINA RESULT:      -5.6     59.462     61.351
REMARK  Name = 
REMARK  9 active torsions:
REMARK  status: ('A' for Active; 'I' for Inactive)
REMARK    1  A    between atoms: O_2  and  C_3
REMARK    2  A    between atoms: C_5  and  C_6
REMARK    3  A    between atoms: C_6  and  C_7
REMARK    4  A    between atoms: C_8  and  C_9
REMARK    5  A    between atoms: C_9  and  C_11
REMARK    6  A    between atoms: C_11  and  C_12
REMARK    7  A    between atoms: C_12  and  C_14
REMARK    8  A    between atoms: C_15  and  C_16
REMARK    9  A    between atoms: C_16  and  C_17
REMARK                            x       y       z     vdW  Elec       q    Type
REMARK                         _______ _______ _______ _____ _____    ______ ____
ROOT
ATOM      9  C   UNL     1       1.386  52.508  20.139  0.00  0.00    +0.000 C 
ATOM     10  O   UNL     1       1.752  51.686  21.026  0.00  0.00    +0.000 OA
ENDROOT
BRANCH   9   8
ATOM      7  C   UNL     1       3.239  54.029  20.619  0.00  0.00    +0.000 C 
ATOM      8  C   UNL     1       2.099  53.782  19.992  0.00  0.00    +0.000 C 
BRANCH   7   6
ATOM      6  C   UNL     1       4.311  54.819  19.983  0.00  0.00    +0.000 C 
BRANCH   6   5
ATOM      3  C   UNL     1       5.500  56.026  23.332  0.00  0.00    +0.000 A 
ATOM      4  C   UNL     1       4.723  55.974  22.184  0.00  0.00    +0.000 A 
ATOM      5  C   UNL     1       5.201  55.481  20.984  0.00  0.00    +0.000 A 
ATOM     24  C   UNL     1       6.580  55.434  20.828  0.00  0.00    +0.000 A 
ATOM     25  C   UNL     1       7.377  55.450  21.964  0.00  0.00    +0.000 A 
ATOM     26  C   UNL     1       6.834  55.670  23.219  0.00  0.00    +0.000 A 
ATOM     27  O   UNL     1       7.550  55.178  24.313  0.00  0.00    +0.000 OA
BRANCH   3   2
ATOM      1  C   UNL     1       3.556  55.973  24.842  0.00  0.00    +0.000 C 
ATOM      2  O   UNL     1       4.948  55.934  24.610  0.00  0.00    +0.000 OA
ENDBRANCH   3   2
ENDBRANCH   6   5
ENDBRANCH   7   6
ENDBRANCH   9   8
BRANCH   9  11
ATOM     11  C   UNL     1       0.284  52.136  19.201  0.00  0.00    +0.000 C 
BRANCH  11  12
ATOM     12  C   UNL     1       0.870  52.226  17.826  0.00  0.00    +0.000 C 
ATOM     13  O   UNL     1       0.238  52.974  17.019  0.00  0.00    +0.000 OA
BRANCH  12  14
ATOM     14  C   UNL     1       1.334  50.957  17.251  0.00  0.00    +0.000 C 
ATOM     15  C   UNL     1       2.620  50.694  17.202  0.00  0.00    +0.000 C 
BRANCH  15  16
ATOM     16  C   UNL     1       3.633  51.785  17.251  0.00  0.00    +0.000 C 
BRANCH  16  17
ATOM     17  C   UNL     1       4.747  51.447  18.189  0.00  0.00    +0.000 A 
ATOM     18  C   UNL     1       5.983  52.054  18.125  0.00  0.00    +0.000 A 
ATOM     19  C   UNL     1       6.722  52.149  19.298  0.00  0.00    +0.000 A 
ATOM     20  C   UNL     1       6.263  51.572  20.475  0.00  0.00    +0.000 A 
ATOM     21  O   UNL     1       6.664  52.060  21.716  0.00  0.00    +0.000 OA
ATOM     22  C   UNL     1       5.118  50.787  20.478  0.00  0.00    +0.000 A 
ATOM     23  C   UNL     1       4.549  50.551  19.231  0.00  0.00    +0.000 A 
ENDBRANCH  16  17
ENDBRANCH  15  16
ENDBRANCH  12  14
ENDBRANCH  11  12
ENDBRANCH   9  11
TORSDOF 9
ENDMDL
MODEL 3
REMARK VINA RESULT:      -5.5     57.784     61.679
REMARK  Name = 
REMARK  9 active torsions:
REMARK  status: ('A' for Active; 'I' for Inactive)
REMARK    1  A    between atoms: O_2  and  C_3
REMARK    2  A    between atoms: C_5  and  C_6
REMARK    3  A    between atoms: C_6  and  C_7
REMARK    4  A    between atoms: C_8  and  C_9
REMARK    5  A    between atoms: C_9  and  C_11
REMARK    6  A    between atoms: C_11  and  C_12
REMARK    7  A    between atoms: C_12  and  C_14
REMARK    8  A    between atoms: C_15  and  C_16
REMARK    9  A    between atoms: C_16  and  C_17
REMARK                            x       y       z     vdW  Elec       q    Type
REMARK                         _______ _______ _______ _____ _____    ______ ____
ROOT
ATOM      9  C   UNL     1      25.429  42.180  22.495  0.00  0.00    +0.000 C 
ATOM     10  O   UNL     1      26.130  43.228  22.572  0.00  0.00    +0.000 OA
ENDROOT
BRANCH   9   8
ATOM      7  C   UNL     1      23.947  43.168  20.820  0.00  0.00    +0.000 C 
ATOM      8  C   UNL     1      24.249  42.159  21.623  0.00  0.00    +0.000 C 
BRANCH   7   6
ATOM      6  C   UNL     1      23.357  42.940  19.487  0.00  0.00    +0.000 C 
BRANCH   6   5
ATOM      3  C   UNL     1      25.499  45.618  17.961  0.00  0.00    +0.000 A 
ATOM      4  C   UNL     1      24.585  45.039  18.831  0.00  0.00    +0.000 A 
ATOM      5  C   UNL     1      23.817  43.945  18.482  0.00  0.00    +0.000 A 
ATOM     24  C   UNL     1      23.658  43.695  17.125  0.00  0.00    +0.000 A 
ATOM     25  C   UNL     1      24.580  44.235  16.239  0.00  0.00    +0.000 A 
ATOM     26  C   UNL     1      25.544  45.134  16.665  0.00  0.00    +0.000 A 
ATOM     27  O   UNL     1      26.704  45.230  15.892  0.00  0.00    +0.000 OA
BRANCH   3   2
ATOM      1  C   UNL     1      26.813  46.681  19.752  0.00  0.00    +0.000 C 
ATOM      2  O   UNL     1      26.649  46.266  18.413  0.00  0.00    +0.000 OA
ENDBRANCH   3   2
ENDBRANCH   6   5
ENDBRANCH   7   6
ENDBRANCH   9   8
BRANCH   9  11
ATOM     11  C   UNL     1      25.856  40.953  23.234  0.00  0.00    +0.000 C 
BRANCH  11  12
ATOM     12  C   UNL     1      25.458  39.797  22.369  0.00  0.00    +0.000 C 
ATOM     13  O   UNL     1      24.554  39.050  22.852  0.00  0.00    +0.000 OA
BRANCH  12  14
ATOM     14  C   UNL     1      26.564  39.082  21.721  0.00  0.00    +0.000 C 
ATOM     15  C   UNL     1      26.739  39.187  20.422  0.00  0.00    +0.000 C 
BRANCH  15  16
ATOM     16  C   UNL     1      25.622  39.592  19.525  0.00  0.00    +0.000 C 
BRANCH  16  17
ATOM     17  C   UNL     1      26.041  40.692  18.601  0.00  0.00    +0.000 A 
ATOM     18  C   UNL     1      26.836  41.741  19.007  0.00  0.00    +0.000 A 
ATOM     19  C   UNL     1      27.638  42.356  18.054  0.00  0.00    +0.000 A 
ATOM     20  C   UNL     1      27.571  41.977  16.718  0.00  0.00    +0.000 A 
ATOM     21  O   UNL     1      28.655  42.163  15.865  0.00  0.00    +0.000 OA
ATOM     22  C   UNL     1      26.617  41.063  16.290  0.00  0.00    +0.000 A 
ATOM     23  C   UNL     1      25.704  40.653  17.255  0.00  0.00    +0.000 A 
ENDBRANCH  16  17
ENDBRANCH  15  16
ENDBRANCH  12  14
ENDBRANCH  11  12
ENDBRANCH   9  11
TORSDOF 9
ENDMDL
MODEL 4
REMARK VINA RESULT:      -5.5     58.567     61.319
REMARK  Name = 
REMARK  9 active torsions:
REMARK  status: ('A' for Active; 'I' for Inactive)
REMARK    1  A    between atoms: O_2  and  C_3
REMARK    2  A    between atoms: C_5  and  C_6
REMARK    3  A    between atoms: C_6  and  C_7
REMARK    4  A    between atoms: C_8  and  C_9
REMARK    5  A    between atoms: C_9  and  C_11
REMARK    6  A    between atoms: C_11  and  C_12
REMARK    7  A    between atoms: C_12  and  C_14
REMARK    8  A    between atoms: C_15  and  C_16
REMARK    9  A    between atoms: C_16  and  C_17
REMARK                            x       y       z     vdW  Elec       q    Type
REMARK                         _______ _______ _______ _____ _____    ______ ____
ROOT
ATOM      9  C   UNL     1       3.303  55.655  23.427  0.00  0.00    +0.000 C 
ATOM     10  O   UNL     1       3.781  56.006  24.542  0.00  0.00    +0.000 OA
ENDROOT
BRANCH   9   8
ATOM      7  C   UNL     1       5.083  56.137  21.820  0.00  0.00    +0.000 C 
ATOM      8  C   UNL     1       3.817  56.261  22.193  0.00  0.00    +0.000 C 
BRANCH   7   6
ATOM      6  C   UNL     1       5.455  56.003  20.399  0.00  0.00    +0.000 C 
BRANCH   6   5
ATOM      3  C   UNL     1       6.077  52.794  18.554  0.00  0.00    +0.000 A 
ATOM      4  C   UNL     1       5.405  53.715  19.344  0.00  0.00    +0.000 A 
ATOM      5  C   UNL     1       6.062  54.672  20.094  0.00  0.00    +0.000 A 
ATOM     24  C   UNL     1       7.399  54.434  20.383  0.00  0.00    +0.000 A 
ATOM     25  C   UNL     1       8.102  53.542  19.585  0.00  0.00    +0.000 A 
ATOM     26  C   UNL     1       7.459  52.778  18.624  0.00  0.00    +0.000 A 
ATOM     27  O   UNL     1       8.236  52.321  17.557  0.00  0.00    +0.000 OA
BRANCH   3   2
ATOM      1  C   UNL     1       4.709  51.099  17.403  0.00  0.00    +0.000 C 
ATOM      2  O   UNL     1       5.517  52.258  17.394  0.00  0.00    +0.000 OA
ENDBRANCH   3   2
ENDBRANCH   6   5
ENDBRANCH   7   6
ENDBRANCH   9   8
BRANCH   9  11
ATOM     11  C   UNL     1       2.274  54.572  23.375  0.00  0.00    +0.000 C 
BRANCH  11  12
ATOM     12  C   UNL     1       2.912  53.439  22.632  0.00  0.00    +0.000 C 
ATOM     13  O   UNL     1       2.452  53.233  21.467  0.00  0.00    +0.000 OA
BRANCH  12  14
ATOM     14  C   UNL     1       3.158  52.224  23.419  0.00  0.00    +0.000 C 
ATOM     15  C   UNL     1       4.392  51.833  23.649  0.00  0.00    +0.000 C 
BRANCH  15  16
ATOM     16  C   UNL     1       5.515  52.270  22.773  0.00  0.00    +0.000 C 
BRANCH  16  17
ATOM     17  C   UNL     1       6.638  52.843  23.578  0.00  0.00    +0.000 A 
ATOM     18  C   UNL     1       7.935  52.389  23.473  0.00  0.00    +0.000 A 
ATOM     19  C   UNL     1       8.961  53.282  23.757  0.00  0.00    +0.000 A 
ATOM     20  C   UNL     1       8.680  54.564  24.215  0.00  0.00    +0.000 A 
ATOM     21  O   UNL     1       9.578  55.609  24.015  0.00  0.00    +0.000 OA
ATOM     22  C   UNL     1       7.377  54.938  24.514  0.00  0.00    +0.000 A 
ATOM     23  C   UNL     1       6.426  53.928  24.417  0.00  0.00    +0.000 A 
ENDBRANCH  16  17
ENDBRANCH  15  16
ENDBRANCH  12  14
ENDBRANCH  11  12
ENDBRANCH   9  11
TORSDOF 9
ENDMDL
MODEL 5
REMARK VINA RESULT:      -5.5     56.557     60.247
REMARK  Name = 
REMARK  9 active torsions:
REMARK  status: ('A' for Active; 'I' for Inactive)
REMARK    1  A    between atoms: O_2  and  C_3
REMARK    2  A    between atoms: C_5  and  C_6
REMARK    3  A    between atoms: C_6  and  C_7
REMARK    4  A    between atoms: C_8  and  C_9
REMARK    5  A    between atoms: C_9  and  C_11
REMARK    6  A    between atoms: C_11  and  C_12
REMARK    7  A    between atoms: C_12  and  C_14
REMARK    8  A    between atoms: C_15  and  C_16
REMARK    9  A    between atoms: C_16  and  C_17
REMARK                            x       y       z     vdW  Elec       q    Type
REMARK                         _______ _______ _______ _____ _____    ______ ____
ROOT
ATOM      9  C   UNL     1      28.357  42.524  20.022  0.00  0.00    +0.000 C 
ATOM     10  O   UNL     1      28.616  41.447  20.629  0.00  0.00    +0.000 OA
ENDROOT
BRANCH   9   8
ATOM      7  C   UNL     1      27.316  44.728  20.213  0.00  0.00    +0.000 C 
ATOM      8  C   UNL     1      27.379  43.459  20.589  0.00  0.00    +0.000 C 
BRANCH   7   6
ATOM      6  C   UNL     1      26.026  45.435  20.107  0.00  0.00    +0.000 C 
BRANCH   6   5
ATOM      3  C   UNL     1      26.917  46.675  16.679  0.00  0.00    +0.000 A 
ATOM      4  C   UNL     1      26.898  46.625  18.065  0.00  0.00    +0.000 A 
ATOM      5  C   UNL     1      25.842  46.087  18.775  0.00  0.00    +0.000 A 
ATOM     24  C   UNL     1      24.626  45.986  18.113  0.00  0.00    +0.000 A 
ATOM     25  C   UNL     1      24.623  45.999  16.725  0.00  0.00    +0.000 A 
ATOM     26  C   UNL     1      25.777  46.268  16.007  0.00  0.00    +0.000 A 
ATOM     27  O   UNL     1      25.839  45.776  14.702  0.00  0.00    +0.000 OA
BRANCH   3   2
ATOM      1  C   UNL     1      29.290  46.055  16.454  0.00  0.00    +0.000 C 
ATOM      2  O   UNL     1      28.105  46.633  15.948  0.00  0.00    +0.000 OA
ENDBRANCH   3   2
ENDBRANCH   6   5
ENDBRANCH   7   6
ENDBRANCH   9   8
BRANCH   9  11
ATOM     11  C   UNL     1      29.108  42.865  18.775  0.00  0.00    +0.000 C 
BRANCH  11  12
ATOM     12  C   UNL     1      28.396  42.157  17.664  0.00  0.00    +0.000 C 
ATOM     13  O   UNL     1      29.140  41.461  16.907  0.00  0.00    +0.000 OA
BRANCH  12  14
ATOM     14  C   UNL     1      27.371  42.942  16.966  0.00  0.00    +0.000 C 
ATOM     15  C   UNL     1      26.100  42.655  17.135  0.00  0.00    +0.000 C 
BRANCH  15  16
ATOM     16  C   UNL     1      25.670  41.307  17.600  0.00  0.00    +0.000 C 
BRANCH  16  17
ATOM     17  C   UNL     1      24.812  41.405  18.822  0.00  0.00    +0.000 A 
ATOM     18  C   UNL     1      25.028  40.638  19.946  0.00  0.00    +0.000 A 
ATOM     19  C   UNL     1      24.628  41.153  21.172  0.00  0.00    +0.000 A 
ATOM     20  C   UNL     1      23.953  42.365  21.246  0.00  0.00    +0.000 A 
ATOM     21  O   UNL     1      23.999  43.142  22.400  0.00  0.00    +0.000 OA
ATOM     22  C   UNL     1      23.558  43.026  20.091  0.00  0.00    +0.000 A 
ATOM     23  C   UNL     1      23.796  42.348  18.901  0.00  0.00    +0.000 A 
ENDBRANCH  16  17
ENDBRANCH  15  16
ENDBRANCH  12  14
ENDBRANCH  11  12
ENDBRANCH   9  11
TORSDOF 9
ENDMDL
MODEL 6
REMARK VINA RESULT:      -5.4     12.626     14.909
REMARK  Name = 
REMARK  9 active torsions:
REMARK  status: ('A' for Active; 'I' for Inactive)
REMARK    1  A    between atoms: O_2  and  C_3
REMARK    2  A    between atoms: C_5  and  C_6
REMARK    3  A    between atoms: C_6  and  C_7
REMARK    4  A    between atoms: C_8  and  C_9
REMARK    5  A    between atoms: C_9  and  C_11
REMARK    6  A    between atoms: C_11  and  C_12
REMARK    7  A    between atoms: C_12  and  C_14
REMARK    8  A    between atoms: C_15  and  C_16
REMARK    9  A    between atoms: C_16  and  C_17
REMARK                            x       y       z     vdW  Elec       q    Type
REMARK                         _______ _______ _______ _____ _____    ______ ____
ROOT
ATOM      9  C   UNL     1      12.660  79.225 -25.668  0.00  0.00    +0.000 C 
ATOM     10  O   UNL     1      12.260  78.984 -26.842  0.00  0.00    +0.000 OA
ENDROOT
BRANCH   9   8
ATOM      7  C   UNL     1      15.087  79.515 -25.573  0.00  0.00    +0.000 C 
ATOM      8  C   UNL     1      13.870  80.029 -25.465  0.00  0.00    +0.000 C 
BRANCH   7   6
ATOM      6  C   UNL     1      16.203  80.294 -26.140  0.00  0.00    +0.000 C 
BRANCH   6   5
ATOM      3  C   UNL     1      17.458  80.900 -29.625  0.00  0.00    +0.000 A 
ATOM      4  C   UNL     1      16.862  81.181 -28.405  0.00  0.00    +0.000 A 
ATOM      5  C   UNL     1      16.256  80.210 -27.631  0.00  0.00    +0.000 A 
ATOM     24  C   UNL     1      15.877  79.039 -28.275  0.00  0.00    +0.000 A 
ATOM     25  C   UNL     1      16.485  78.719 -29.481  0.00  0.00    +0.000 A 
ATOM     26  C   UNL     1      17.330  79.613 -30.119  0.00  0.00    +0.000 A 
ATOM     27  O   UNL     1      18.272  79.074 -30.998  0.00  0.00    +0.000 OA
BRANCH   3   2
ATOM      1  C   UNL     1      18.364  82.821 -30.871  0.00  0.00    +0.000 C 
ATOM      2  O   UNL     1      18.534  81.640 -30.117  0.00  0.00    +0.000 OA
ENDBRANCH   3   2
ENDBRANCH   6   5
ENDBRANCH   7   6
ENDBRANCH   9   8
BRANCH   9  11
ATOM     11  C   UNL     1      11.852  78.751 -24.504  0.00  0.00    +0.000 C 
BRANCH  11  12
ATOM     12  C   UNL     1      11.014  77.624 -25.021  0.00  0.00    +0.000 C 
ATOM     13  O   UNL     1       9.780  77.889 -25.157  0.00  0.00    +0.000 OA
BRANCH  12  14
ATOM     14  C   UNL     1      11.297  76.306 -24.440  0.00  0.00    +0.000 C 
ATOM     15  C   UNL     1      11.955  75.410 -25.141  0.00  0.00    +0.000 C 
BRANCH  15  16
ATOM     16  C   UNL     1      12.004  75.480 -26.628  0.00  0.00    +0.000 C 
BRANCH  16  17
ATOM     17  C   UNL     1      13.397  75.283 -27.134  0.00  0.00    +0.000 A 
ATOM     18  C   UNL     1      14.442  76.107 -26.775  0.00  0.00    +0.000 A 
ATOM     19  C   UNL     1      15.724  75.570 -26.775  0.00  0.00    +0.000 A 
ATOM     20  C   UNL     1      15.948  74.269 -27.209  0.00  0.00    +0.000 A 
ATOM     21  O   UNL     1      17.047  73.543 -26.758  0.00  0.00    +0.000 OA
ATOM     22  C   UNL     1      14.918  73.521 -27.763  0.00  0.00    +0.000 A 
ATOM     23  C   UNL     1      13.713  74.194 -27.935  0.00  0.00    +0.000 A 
ENDBRANCH  16  17
ENDBRANCH  15  16
ENDBRANCH  12  14
ENDBRANCH  11  12
ENDBRANCH   9  11
TORSDOF 9
ENDMDL
MODEL 7
REMARK VINA RESULT:      -5.3     27.176     29.833
REMARK  Name = 
REMARK  9 active torsions:
REMARK  status: ('A' for Active; 'I' for Inactive)
REMARK    1  A    between atoms: O_2  and  C_3
REMARK    2  A    between atoms: C_5  and  C_6
REMARK    3  A    between atoms: C_6  and  C_7
REMARK    4  A    between atoms: C_8  and  C_9
REMARK    5  A    between atoms: C_9  and  C_11
REMARK    6  A    between atoms: C_11  and  C_12
REMARK    7  A    between atoms: C_12  and  C_14
REMARK    8  A    between atoms: C_15  and  C_16
REMARK    9  A    between atoms: C_16  and  C_17
REMARK                            x       y       z     vdW  Elec       q    Type
REMARK                         _______ _______ _______ _____ _____    ______ ____
ROOT
ATOM      9  C   UNL     1      36.646  58.477  -8.212  0.00  0.00    +0.000 C 
ATOM     10  O   UNL     1      37.744  57.860  -8.120  0.00  0.00    +0.000 OA
ENDROOT
BRANCH   9   8
ATOM      7  C   UNL     1      34.311  57.970  -8.729  0.00  0.00    +0.000 C 
ATOM      8  C   UNL     1      35.588  57.950  -9.081  0.00  0.00    +0.000 C 
BRANCH   7   6
ATOM      6  C   UNL     1      33.244  58.210  -9.720  0.00  0.00    +0.000 C 
BRANCH   6   5
ATOM      3  C   UNL     1      31.917  61.059  -7.669  0.00  0.00    +0.000 A 
ATOM      4  C   UNL     1      32.178  59.745  -8.031  0.00  0.00    +0.000 A 
ATOM      5  C   UNL     1      32.366  59.359  -9.344  0.00  0.00    +0.000 A 
ATOM     24  C   UNL     1      31.874  60.209 -10.326  0.00  0.00    +0.000 A 
ATOM     25  C   UNL     1      31.637  61.535  -9.997  0.00  0.00    +0.000 A 
ATOM     26  C   UNL     1      31.729  61.978  -8.687  0.00  0.00    +0.000 A 
ATOM     27  O   UNL     1      31.988  63.338  -8.497  0.00  0.00    +0.000 OA
BRANCH   3   2
ATOM      1  C   UNL     1      33.479  61.174  -5.769  0.00  0.00    +0.000 C 
ATOM      2  O   UNL     1      32.303  61.583  -6.435  0.00  0.00    +0.000 OA
ENDBRANCH   3   2
ENDBRANCH   6   5
ENDBRANCH   7   6
ENDBRANCH   9   8
BRANCH   9  11
ATOM     11  C   UNL     1      36.413  59.693  -7.375  0.00  0.00    +0.000 C 
BRANCH  11  12
ATOM     12  C   UNL     1      36.777  60.860  -8.240  0.00  0.00    +0.000 C 
ATOM     13  O   UNL     1      37.721  61.583  -7.797  0.00  0.00    +0.000 OA
BRANCH  12  14
ATOM     14  C   UNL     1      35.647  61.604  -8.808  0.00  0.00    +0.000 C 
ATOM     15  C   UNL     1      35.373  61.500 -10.089  0.00  0.00    +0.000 C 
BRANCH  15  16
ATOM     16  C   UNL     1      36.408  61.061 -11.065  0.00  0.00    +0.000 C 
BRANCH  16  17
ATOM     17  C   UNL     1      35.815  60.198 -12.132  0.00  0.00    +0.000 A 
ATOM     18  C   UNL     1      36.352  58.980 -12.489  0.00  0.00    +0.000 A 
ATOM     19  C   UNL     1      35.494  58.017 -13.005  0.00  0.00    +0.000 A 
ATOM     20  C   UNL     1      34.155  58.308 -13.234  0.00  0.00    +0.000 A 
ATOM     21  O   UNL     1      33.193  57.302 -13.240  0.00  0.00    +0.000 OA
ATOM     22  C   UNL     1      33.674  59.600 -13.066  0.00  0.00    +0.000 A 
ATOM     23  C   UNL     1      34.631  60.561 -12.760  0.00  0.00    +0.000 A 
ENDBRANCH  16  17
ENDBRANCH  15  16
ENDBRANCH  12  14
ENDBRANCH  11  12
ENDBRANCH   9  11
TORSDOF 9
ENDMDL
MODEL 8
REMARK VINA RESULT:      -5.3     13.134     15.384
REMARK  Name = 
REMARK  9 active torsions:
REMARK  status: ('A' for Active; 'I' for Inactive)
REMARK    1  A    between atoms: O_2  and  C_3
REMARK    2  A    between atoms: C_5  and  C_6
REMARK    3  A    between atoms: C_6  and  C_7
REMARK    4  A    between atoms: C_8  and  C_9
REMARK    5  A    between atoms: C_9  and  C_11
REMARK    6  A    between atoms: C_11  and  C_12
REMARK    7  A    between atoms: C_12  and  C_14
REMARK    8  A    between atoms: C_15  and  C_16
REMARK    9  A    between atoms: C_16  and  C_17
REMARK                            x       y       z     vdW  Elec       q    Type
REMARK                         _______ _______ _______ _____ _____    ______ ____
ROOT
ATOM      9  C   UNL     1      12.657  79.135 -25.768  0.00  0.00    +0.000 C 
ATOM     10  O   UNL     1      12.277  78.839 -26.936  0.00  0.00    +0.000 OA
ENDROOT
BRANCH   9   8
ATOM      7  C   UNL     1      15.070  79.502 -25.608  0.00  0.00    +0.000 C 
ATOM      8  C   UNL     1      13.837  79.988 -25.585  0.00  0.00    +0.000 C 
BRANCH   7   6
ATOM      6  C   UNL     1      16.187  80.267 -26.193  0.00  0.00    +0.000 C 
BRANCH   6   5
ATOM      3  C   UNL     1      15.602  78.793 -29.595  0.00  0.00    +0.000 A 
ATOM      4  C   UNL     1      16.147  78.926 -28.327  0.00  0.00    +0.000 A 
ATOM      5  C   UNL     1      16.241  80.145 -27.682  0.00  0.00    +0.000 A 
ATOM     24  C   UNL     1      16.179  81.282 -28.476  0.00  0.00    +0.000 A 
ATOM     25  C   UNL     1      15.607  81.181 -29.736  0.00  0.00    +0.000 A 
ATOM     26  C   UNL     1      15.250  79.952 -30.266  0.00  0.00    +0.000 A 
ATOM     27  O   UNL     1      14.256  79.951 -31.247  0.00  0.00    +0.000 OA
BRANCH   3   2
ATOM      1  C   UNL     1      15.666  76.477 -30.429  0.00  0.00    +0.000 C 
ATOM      2  O   UNL     1      14.960  77.626 -30.012  0.00  0.00    +0.000 OA
ENDBRANCH   3   2
ENDBRANCH   6   5
ENDBRANCH   7   6
ENDBRANCH   9   8
BRANCH   9  11
ATOM     11  C   UNL     1      11.855  78.678 -24.594  0.00  0.00    +0.000 C 
BRANCH  11  12
ATOM     12  C   UNL     1      11.027  77.532 -25.087  0.00  0.00    +0.000 C 
ATOM     13  O   UNL     1       9.787  77.776 -25.207  0.00  0.00    +0.000 OA
BRANCH  12  14
ATOM     14  C   UNL     1      11.341  76.224 -24.498  0.00  0.00    +0.000 C 
ATOM     15  C   UNL     1      12.016  75.339 -25.196  0.00  0.00    +0.000 C 
BRANCH  15  16
ATOM     16  C   UNL     1      12.061  75.401 -26.684  0.00  0.00    +0.000 C 
BRANCH  16  17
ATOM     17  C   UNL     1      13.456  75.219 -27.191  0.00  0.00    +0.000 A 
ATOM     18  C   UNL     1      14.499  76.035 -26.811  0.00  0.00    +0.000 A 
ATOM     19  C   UNL     1      15.781  75.501 -26.822  0.00  0.00    +0.000 A 
ATOM     20  C   UNL     1      16.008  74.211 -27.286  0.00  0.00    +0.000 A 
ATOM     21  O   UNL     1      17.107  73.476 -26.851  0.00  0.00    +0.000 OA
ATOM     22  C   UNL     1      14.980  73.475 -27.860  0.00  0.00    +0.000 A 
ATOM     23  C   UNL     1      13.775  74.150 -28.017  0.00  0.00    +0.000 A 
ENDBRANCH  16  17
ENDBRANCH  15  16
ENDBRANCH  12  14
ENDBRANCH  11  12
ENDBRANCH   9  11
TORSDOF 9
ENDMDL
MODEL 9
REMARK VINA RESULT:      -5.3     58.386     63.196
REMARK  Name = 
REMARK  9 active torsions:
REMARK  status: ('A' for Active; 'I' for Inactive)
REMARK    1  A    between atoms: O_2  and  C_3
REMARK    2  A    between atoms: C_5  and  C_6
REMARK    3  A    between atoms: C_6  and  C_7
REMARK    4  A    between atoms: C_8  and  C_9
REMARK    5  A    between atoms: C_9  and  C_11
REMARK    6  A    between atoms: C_11  and  C_12
REMARK    7  A    between atoms: C_12  and  C_14
REMARK    8  A    between atoms: C_15  and  C_16
REMARK    9  A    between atoms: C_16  and  C_17
REMARK                            x       y       z     vdW  Elec       q    Type
REMARK                         _______ _______ _______ _____ _____    ______ ____
ROOT
ATOM      9  C   UNL     1       3.810  56.758  23.521  0.00  0.00    +0.000 C 
ATOM     10  O   UNL     1       3.514  57.876  23.014  0.00  0.00    +0.000 OA
ENDROOT
BRANCH   9   8
ATOM      7  C   UNL     1       2.589  55.046  24.770  0.00  0.00    +0.000 C 
ATOM      8  C   UNL     1       2.779  55.721  23.645  0.00  0.00    +0.000 C 
BRANCH   7   6
ATOM      6  C   UNL     1       1.238  54.645  25.206  0.00  0.00    +0.000 C 
BRANCH   6   5
ATOM      3  C   UNL     1       1.234  57.294  27.864  0.00  0.00    +0.000 A 
ATOM      4  C   UNL     1       1.642  56.160  27.178  0.00  0.00    +0.000 A 
ATOM      5  C   UNL     1       0.779  55.406  26.407  0.00  0.00    +0.000 A 
ATOM     24  C   UNL     1      -0.579  55.544  26.666  0.00  0.00    +0.000 A 
ATOM     25  C   UNL     1      -1.016  56.687  27.321  0.00  0.00    +0.000 A 
ATOM     26  C   UNL     1      -0.117  57.597  27.854  0.00  0.00    +0.000 A 
ATOM     27  O   UNL     1      -0.570  58.907  28.022  0.00  0.00    +0.000 OA
BRANCH   3   2
ATOM      1  C   UNL     1       2.698  58.558  29.389  0.00  0.00    +0.000 C 
ATOM      2  O   UNL     1       2.097  58.358  28.127  0.00  0.00    +0.000 OA
ENDBRANCH   3   2
ENDBRANCH   6   5
ENDBRANCH   7   6
ENDBRANCH   9   8
BRANCH   9  11
ATOM     11  C   UNL     1       5.225  56.480  23.916  0.00  0.00    +0.000 C 
BRANCH  11  12
ATOM     12  C   UNL     1       5.732  55.472  22.932  0.00  0.00    +0.000 C 
ATOM     13  O   UNL     1       6.249  54.433  23.445  0.00  0.00    +0.000 OA
BRANCH  12  14
ATOM     14  C   UNL     1       6.466  56.021  21.785  0.00  0.00    +0.000 C 
ATOM     15  C   UNL     1       5.955  55.930  20.578  0.00  0.00    +0.000 C 
BRANCH  15  16
ATOM     16  C   UNL     1       4.928  54.902  20.251  0.00  0.00    +0.000 C 
BRANCH  16  17
ATOM     17  C   UNL     1       5.553  53.684  19.650  0.00  0.00    +0.000 A 
ATOM     18  C   UNL     1       4.924  52.921  18.691  0.00  0.00    +0.000 A 
ATOM     19  C   UNL     1       5.718  52.219  17.794  0.00  0.00    +0.000 A 
ATOM     20  C   UNL     1       7.102  52.221  17.919  0.00  0.00    +0.000 A 
ATOM     21  O   UNL     1       7.922  51.999  16.816  0.00  0.00    +0.000 OA
ATOM     22  C   UNL     1       7.712  52.823  19.011  0.00  0.00    +0.000 A 
ATOM     23  C   UNL     1       6.849  53.316  19.984  0.00  0.00    +0.000 A 
ENDBRANCH  16  17
ENDBRANCH  15  16
ENDBRANCH  12  14
ENDBRANCH  11  12
ENDBRANCH   9  11
TORSDOF 9
ENDMDL
MODEL 10
REMARK VINA RESULT:      -5.3     61.137     65.406
REMARK  Name = 
REMARK  9 active torsions:
REMARK  status: ('A' for Active; 'I' for Inactive)
REMARK    1  A    between atoms: O_2  and  C_3
REMARK    2  A    between atoms: C_5  and  C_6
REMARK    3  A    between atoms: C_6  and  C_7
REMARK    4  A    between atoms: C_8  and  C_9
REMARK    5  A    between atoms: C_9  and  C_11
REMARK    6  A    between atoms: C_11  and  C_12
REMARK    7  A    between atoms: C_12  and  C_14
REMARK    8  A    between atoms: C_15  and  C_16
REMARK    9  A    between atoms: C_16  and  C_17
REMARK                            x       y       z     vdW  Elec       q    Type
REMARK                         _______ _______ _______ _____ _____    ______ ____
ROOT
ATOM      9  C   UNL     1      25.154  39.633  21.404  0.00  0.00    +0.000 C 
ATOM     10  O   UNL     1      26.228  39.450  20.765  0.00  0.00    +0.000 OA
ENDROOT
BRANCH   9   8
ATOM      7  C   UNL     1      24.013  37.680  22.332  0.00  0.00    +0.000 C 
ATOM      8  C   UNL     1      24.112  38.600  21.384  0.00  0.00    +0.000 C 
BRANCH   7   6
ATOM      6  C   UNL     1      22.700  37.191  22.794  0.00  0.00    +0.000 C 
BRANCH   6   5
ATOM      3  C   UNL     1      21.860  34.114  24.772  0.00  0.00    +0.000 A 
ATOM      4  C   UNL     1      22.408  35.359  24.499  0.00  0.00    +0.000 A 
ATOM      5  C   UNL     1      22.743  35.760  23.220  0.00  0.00    +0.000 A 
ATOM     24  C   UNL     1      22.924  34.758  22.275  0.00  0.00    +0.000 A 
ATOM     25  C   UNL     1      22.357  33.514  22.510  0.00  0.00    +0.000 A 
ATOM     26  C   UNL     1      21.761  33.214  23.724  0.00  0.00    +0.000 A 
ATOM     27  O   UNL     1      20.799  32.202  23.723  0.00  0.00    +0.000 OA
BRANCH   3   2
ATOM      1  C   UNL     1      21.434  33.366  27.079  0.00  0.00    +0.000 C 
ATOM      2  O   UNL     1      20.997  33.899  25.847  0.00  0.00    +0.000 OA
ENDBRANCH   3   2
ENDBRANCH   6   5
ENDBRANCH   7   6
ENDBRANCH   9   8
BRANCH   9  11
ATOM     11  C   UNL     1      24.992  40.866  22.233  0.00  0.00    +0.000 C 
BRANCH  11  12
ATOM     12  C   UNL     1      25.266  42.015  21.313  0.00  0.00    +0.000 C 
ATOM     13  O   UNL     1      26.399  42.566  21.463  0.00  0.00    +0.000 OA
BRANCH  12  14
ATOM     14  C   UNL     1      24.150  42.949  21.117  0.00  0.00    +0.000 C 
ATOM     15  C   UNL     1      23.429  42.885  20.020  0.00  0.00    +0.000 C 
BRANCH  15  16
ATOM     16  C   UNL     1      23.966  42.256  18.781  0.00  0.00    +0.000 C 
BRANCH  16  17
ATOM     17  C   UNL     1      24.586  43.277  17.880  0.00  0.00    +0.000 A 
ATOM     18  C   UNL     1      23.842  44.082  17.045  0.00  0.00    +0.000 A 
ATOM     19  C   UNL     1      24.359  45.327  16.712  0.00  0.00    +0.000 A 
ATOM     20  C   UNL     1      25.625  45.708  17.140  0.00  0.00    +0.000 A 
ATOM     21  O   UNL     1      25.958  47.052  17.286  0.00  0.00    +0.000 OA
ATOM     22  C   UNL     1      26.447  44.808  17.805  0.00  0.00    +0.000 A 
ATOM     23  C   UNL     1      25.954  43.512  17.912  0.00  0.00    +0.000 A 
ENDBRANCH  16  17
ENDBRANCH  15  16
ENDBRANCH  12  14
ENDBRANCH  11  12
ENDBRANCH   9  11
TORSDOF 9
ENDMDL
