MODEL 1
REMARK VINA RESULT:      -5.5      0.000      0.000
REMARK  Name = 
REMARK  8 active torsions:
REMARK  status: ('A' for Active; 'I' for Inactive)
REMARK    1  A    between atoms: C_2  and  C_3
REMARK    2  A    between atoms: C_2  and  C_13
REMARK    3  A    between atoms: C_4  and  C_5
REMARK    4  A    between atoms: C_5  and  C_6
REMARK    5  A    between atoms: C_13  and  C_14
REMARK    6  A    between atoms: C_14  and  C_16
REMARK    7  A    between atoms: C_17  and  C_18
REMARK    8  A    between atoms: C_18  and  C_19
REMARK                            x       y       z     vdW  Elec       q    Type
REMARK                         _______ _______ _______ _____ _____    ______ ____
ROOT
ATOM     13  C   UNL     1     -14.902  73.124  24.301  0.00  0.00    +0.000 C 
ENDROOT
BRANCH  13   2
ATOM      1  O   UNL     1     -14.798  74.848  22.697  0.00  0.00    +0.000 OA
ATOM      2  C   UNL     1     -14.871  73.596  22.885  0.00  0.00    +0.000 C 
BRANCH   2   3
ATOM      3  C   UNL     1     -14.503  72.754  21.769  0.00  0.00    +0.000 C 
ATOM      4  C   UNL     1     -14.329  71.460  21.809  0.00  0.00    +0.000 C 
BRANCH   4   5
ATOM      5  C   UNL     1     -13.228  70.693  21.234  0.00  0.00    +0.000 C 
BRANCH   5   6
ATOM      6  C   UNL     1     -12.675  69.642  22.094  0.00  0.00    +0.000 A 
ATOM      7  C   UNL     1     -12.203  70.041  23.340  0.00  0.00    +0.000 A 
ATOM      8  C   UNL     1     -12.192  69.156  24.410  0.00  0.00    +0.000 A 
ATOM      9  C   UNL     1     -12.829  67.925  24.316  0.00  0.00    +0.000 A 
ATOM     10  O   UNL     1     -13.606  67.413  25.356  0.00  0.00    +0.000 OA
ATOM     11  C   UNL     1     -12.975  67.427  23.028  0.00  0.00    +0.000 A 
ATOM     12  C   UNL     1     -12.874  68.293  21.947  0.00  0.00    +0.000 A 
ENDBRANCH   5   6
ENDBRANCH   4   5
ENDBRANCH   2   3
ENDBRANCH  13   2
BRANCH  13  14
ATOM     14  C   UNL     1     -13.774  73.752  25.056  0.00  0.00    +0.000 C 
ATOM     15  O   UNL     1     -14.077  74.411  26.096  0.00  0.00    +0.000 OA
BRANCH  14  16
ATOM     16  C   UNL     1     -12.532  72.973  25.155  0.00  0.00    +0.000 C 
ATOM     17  C   UNL     1     -11.414  73.660  24.919  0.00  0.00    +0.000 C 
BRANCH  17  18
ATOM     18  C   UNL     1     -11.393  74.424  23.632  0.00  0.00    +0.000 C 
BRANCH  18  19
ATOM     19  C   UNL     1     -10.591  73.602  22.672  0.00  0.00    +0.000 A 
ATOM     20  C   UNL     1     -10.961  73.406  21.366  0.00  0.00    +0.000 A 
ATOM     21  C   UNL     1     -10.019  72.898  20.480  0.00  0.00    +0.000 A 
ATOM     22  C   UNL     1      -8.691  72.843  20.856  0.00  0.00    +0.000 A 
ATOM     23  O   UNL     1      -7.733  72.412  19.955  0.00  0.00    +0.000 OA
ATOM     24  C   UNL     1      -8.436  72.657  22.198  0.00  0.00    +0.000 A 
ATOM     25  C   UNL     1      -9.330  73.235  23.088  0.00  0.00    +0.000 A 
ENDBRANCH  18  19
ENDBRANCH  17  18
ENDBRANCH  14  16
ENDBRANCH  13  14
TORSDOF 8
ENDMDL
MODEL 2
REMARK VINA RESULT:      -5.2     45.301     47.679
REMARK  Name = 
REMARK  8 active torsions:
REMARK  status: ('A' for Active; 'I' for Inactive)
REMARK    1  A    between atoms: C_2  and  C_3
REMARK    2  A    between atoms: C_2  and  C_13
REMARK    3  A    between atoms: C_4  and  C_5
REMARK    4  A    between atoms: C_5  and  C_6
REMARK    5  A    between atoms: C_13  and  C_14
REMARK    6  A    between atoms: C_14  and  C_16
REMARK    7  A    between atoms: C_17  and  C_18
REMARK    8  A    between atoms: C_18  and  C_19
REMARK                            x       y       z     vdW  Elec       q    Type
REMARK                         _______ _______ _______ _____ _____    ______ ____
ROOT
ATOM     13  C   UNL     1      24.917  40.849  20.251  0.00  0.00    +0.000 C 
ENDROOT
BRANCH  13   2
ATOM      1  O   UNL     1      24.726  42.499  21.922  0.00  0.00    +0.000 OA
ATOM      2  C   UNL     1      24.326  42.111  20.782  0.00  0.00    +0.000 C 
BRANCH   2   3
ATOM      3  C   UNL     1      23.683  43.105  19.952  0.00  0.00    +0.000 C 
ATOM      4  C   UNL     1      22.875  42.866  18.956  0.00  0.00    +0.000 C 
BRANCH   4   5
ATOM      5  C   UNL     1      22.895  43.474  17.629  0.00  0.00    +0.000 C 
BRANCH   5   6
ATOM      6  C   UNL     1      24.025  44.371  17.363  0.00  0.00    +0.000 A 
ATOM      7  C   UNL     1      24.872  44.013  16.320  0.00  0.00    +0.000 A 
ATOM      8  C   UNL     1      25.585  44.980  15.622  0.00  0.00    +0.000 A 
ATOM      9  C   UNL     1      25.320  46.330  15.815  0.00  0.00    +0.000 A 
ATOM     10  O   UNL     1      25.244  47.229  14.751  0.00  0.00    +0.000 OA
ATOM     11  C   UNL     1      24.761  46.657  17.044  0.00  0.00    +0.000 A 
ATOM     12  C   UNL     1      24.145  45.667  17.797  0.00  0.00    +0.000 A 
ENDBRANCH   5   6
ENDBRANCH   4   5
ENDBRANCH   2   3
ENDBRANCH  13   2
BRANCH  13  14
ATOM     14  C   UNL     1      26.344  41.090  19.875  0.00  0.00    +0.000 C 
ATOM     15  O   UNL     1      27.209  40.316  20.385  0.00  0.00    +0.000 OA
BRANCH  14  16
ATOM     16  C   UNL     1      26.603  41.479  18.483  0.00  0.00    +0.000 C 
ATOM     17  C   UNL     1      27.513  42.441  18.324  0.00  0.00    +0.000 C 
BRANCH  17  18
ATOM     18  C   UNL     1      27.276  43.682  19.127  0.00  0.00    +0.000 C 
BRANCH  18  19
ATOM     19  C   UNL     1      28.047  44.771  18.448  0.00  0.00    +0.000 A 
ATOM     20  C   UNL     1      28.771  44.569  17.301  0.00  0.00    +0.000 A 
ATOM     21  C   UNL     1      29.194  45.681  16.582  0.00  0.00    +0.000 A 
ATOM     22  C   UNL     1      28.674  46.925  16.882  0.00  0.00    +0.000 A 
ATOM     23  O   UNL     1      29.028  48.025  16.123  0.00  0.00    +0.000 OA
ATOM     24  C   UNL     1      28.314  47.143  18.194  0.00  0.00    +0.000 A 
ATOM     25  C   UNL     1      27.812  46.053  18.892  0.00  0.00    +0.000 A 
ENDBRANCH  18  19
ENDBRANCH  17  18
ENDBRANCH  14  16
ENDBRANCH  13  14
TORSDOF 8
ENDMDL
MODEL 3
REMARK VINA RESULT:      -5.1     46.046     48.526
REMARK  Name = 
REMARK  8 active torsions:
REMARK  status: ('A' for Active; 'I' for Inactive)
REMARK    1  A    between atoms: C_2  and  C_3
REMARK    2  A    between atoms: C_2  and  C_13
REMARK    3  A    between atoms: C_4  and  C_5
REMARK    4  A    between atoms: C_5  and  C_6
REMARK    5  A    between atoms: C_13  and  C_14
REMARK    6  A    between atoms: C_14  and  C_16
REMARK    7  A    between atoms: C_17  and  C_18
REMARK    8  A    between atoms: C_18  and  C_19
REMARK                            x       y       z     vdW  Elec       q    Type
REMARK                         _______ _______ _______ _____ _____    ______ ____
ROOT
ATOM     13  C   UNL     1      26.181  40.732  19.340  0.00  0.00    +0.000 C 
ENDROOT
BRANCH  13   2
ATOM      1  O   UNL     1      25.861  40.550  17.012  0.00  0.00    +0.000 OA
ATOM      2  C   UNL     1      25.803  39.948  18.128  0.00  0.00    +0.000 C 
BRANCH   2   3
ATOM      3  C   UNL     1      25.790  38.503  18.082  0.00  0.00    +0.000 C 
ATOM      4  C   UNL     1      24.830  37.731  18.512  0.00  0.00    +0.000 C 
BRANCH   4   5
ATOM      5  C   UNL     1      24.955  36.531  19.334  0.00  0.00    +0.000 C 
BRANCH   5   6
ATOM      6  C   UNL     1      23.863  36.303  20.287  0.00  0.00    +0.000 A 
ATOM      7  C   UNL     1      23.488  34.980  20.499  0.00  0.00    +0.000 A 
ATOM      8  C   UNL     1      22.921  34.589  21.705  0.00  0.00    +0.000 A 
ATOM      9  C   UNL     1      22.898  35.457  22.789  0.00  0.00    +0.000 A 
ATOM     10  O   UNL     1      23.198  35.032  24.084  0.00  0.00    +0.000 OA
ATOM     11  C   UNL     1      22.947  36.808  22.471  0.00  0.00    +0.000 A 
ATOM     12  C   UNL     1      23.408  37.198  21.221  0.00  0.00    +0.000 A 
ENDBRANCH   5   6
ENDBRANCH   4   5
ENDBRANCH   2   3
ENDBRANCH  13   2
BRANCH  13  14
ATOM     14  C   UNL     1      24.944  41.102  20.096  0.00  0.00    +0.000 C 
ATOM     15  O   UNL     1      24.558  40.293  20.992  0.00  0.00    +0.000 OA
BRANCH  14  16
ATOM     16  C   UNL     1      24.772  42.522  20.426  0.00  0.00    +0.000 C 
ATOM     17  C   UNL     1      23.617  43.059  20.033  0.00  0.00    +0.000 C 
BRANCH  17  18
ATOM     18  C   UNL     1      23.281  42.865  18.588  0.00  0.00    +0.000 C 
BRANCH  18  19
ATOM     19  C   UNL     1      24.069  43.892  17.836  0.00  0.00    +0.000 A 
ATOM     20  C   UNL     1      24.585  43.668  16.584  0.00  0.00    +0.000 A 
ATOM     21  C   UNL     1      25.027  44.759  15.846  0.00  0.00    +0.000 A 
ATOM     22  C   UNL     1      24.712  46.037  16.264  0.00  0.00    +0.000 A 
ATOM     23  O   UNL     1      25.080  47.127  15.497  0.00  0.00    +0.000 OA
ATOM     24  C   UNL     1      24.581  46.228  17.623  0.00  0.00    +0.000 A 
ATOM     25  C   UNL     1      24.059  45.168  18.353  0.00  0.00    +0.000 A 
ENDBRANCH  18  19
ENDBRANCH  17  18
ENDBRANCH  14  16
ENDBRANCH  13  14
TORSDOF 8
ENDMDL
MODEL 4
REMARK VINA RESULT:      -4.9     45.401     48.083
REMARK  Name = 
REMARK  8 active torsions:
REMARK  status: ('A' for Active; 'I' for Inactive)
REMARK    1  A    between atoms: C_2  and  C_3
REMARK    2  A    between atoms: C_2  and  C_13
REMARK    3  A    between atoms: C_4  and  C_5
REMARK    4  A    between atoms: C_5  and  C_6
REMARK    5  A    between atoms: C_13  and  C_14
REMARK    6  A    between atoms: C_14  and  C_16
REMARK    7  A    between atoms: C_17  and  C_18
REMARK    8  A    between atoms: C_18  and  C_19
REMARK                            x       y       z     vdW  Elec       q    Type
REMARK                         _______ _______ _______ _____ _____    ______ ____
ROOT
ATOM     13  C   UNL     1      26.205  40.649  20.327  0.00  0.00    +0.000 C 
ENDROOT
BRANCH  13   2
ATOM      1  O   UNL     1      24.994  39.630  18.581  0.00  0.00    +0.000 OA
ATOM      2  C   UNL     1      26.073  40.212  18.906  0.00  0.00    +0.000 C 
BRANCH   2   3
ATOM      3  C   UNL     1      26.863  40.758  17.825  0.00  0.00    +0.000 C 
ATOM      4  C   UNL     1      27.895  41.547  17.952  0.00  0.00    +0.000 C 
BRANCH   4   5
ATOM      5  C   UNL     1      28.174  42.771  17.207  0.00  0.00    +0.000 C 
BRANCH   5   6
ATOM      6  C   UNL     1      27.890  44.022  17.919  0.00  0.00    +0.000 A 
ATOM      7  C   UNL     1      27.663  43.921  19.287  0.00  0.00    +0.000 A 
ATOM      8  C   UNL     1      27.941  44.988  20.132  0.00  0.00    +0.000 A 
ATOM      9  C   UNL     1      28.631  46.099  19.664  0.00  0.00    +0.000 A 
ATOM     10  O   UNL     1      29.645  46.708  20.406  0.00  0.00    +0.000 OA
ATOM     11  C   UNL     1      28.539  46.325  18.297  0.00  0.00    +0.000 A 
ATOM     12  C   UNL     1      28.151  45.288  17.460  0.00  0.00    +0.000 A 
ENDBRANCH   5   6
ENDBRANCH   4   5
ENDBRANCH   2   3
ENDBRANCH  13   2
BRANCH  13  14
ATOM     14  C   UNL     1      24.882  41.145  20.818  0.00  0.00    +0.000 C 
ATOM     15  O   UNL     1      24.336  40.488  21.754  0.00  0.00    +0.000 OA
BRANCH  14  16
ATOM     16  C   UNL     1      24.712  42.601  20.900  0.00  0.00    +0.000 C 
ATOM     17  C   UNL     1      23.621  43.078  20.299  0.00  0.00    +0.000 C 
BRANCH  17  18
ATOM     18  C   UNL     1      23.443  42.660  18.873  0.00  0.00    +0.000 C 
BRANCH  18  19
ATOM     19  C   UNL     1      24.133  43.697  18.045  0.00  0.00    +0.000 A 
ATOM     20  C   UNL     1      24.494  43.491  16.737  0.00  0.00    +0.000 A 
ATOM     21  C   UNL     1      24.843  44.592  15.966  0.00  0.00    +0.000 A 
ATOM     22  C   UNL     1      24.582  45.865  16.436  0.00  0.00    +0.000 A 
ATOM     23  O   UNL     1      24.854  46.965  15.644  0.00  0.00    +0.000 OA
ATOM     24  C   UNL     1      24.616  46.037  17.803  0.00  0.00    +0.000 A 
ATOM     25  C   UNL     1      24.187  44.967  18.576  0.00  0.00    +0.000 A 
ENDBRANCH  18  19
ENDBRANCH  17  18
ENDBRANCH  14  16
ENDBRANCH  13  14
TORSDOF 8
ENDMDL
MODEL 5
REMARK VINA RESULT:      -4.7     53.279     56.339
REMARK  Name = 
REMARK  8 active torsions:
REMARK  status: ('A' for Active; 'I' for Inactive)
REMARK    1  A    between atoms: C_2  and  C_3
REMARK    2  A    between atoms: C_2  and  C_13
REMARK    3  A    between atoms: C_4  and  C_5
REMARK    4  A    between atoms: C_5  and  C_6
REMARK    5  A    between atoms: C_13  and  C_14
REMARK    6  A    between atoms: C_14  and  C_16
REMARK    7  A    between atoms: C_17  and  C_18
REMARK    8  A    between atoms: C_18  and  C_19
REMARK                            x       y       z     vdW  Elec       q    Type
REMARK                         _______ _______ _______ _____ _____    ______ ____
ROOT
ATOM     13  C   UNL     1      10.814  78.301 -25.918  0.00  0.00    +0.000 C 
ENDROOT
BRANCH  13   2
ATOM      1  O   UNL     1       8.888  77.439 -24.870  0.00  0.00    +0.000 OA
ATOM      2  C   UNL     1      10.114  77.245 -25.130  0.00  0.00    +0.000 C 
BRANCH   2   3
ATOM      3  C   UNL     1      10.590  75.885 -25.017  0.00  0.00    +0.000 C 
ATOM      4  C   UNL     1      11.818  75.484 -25.200  0.00  0.00    +0.000 C 
BRANCH   4   5
ATOM      5  C   UNL     1      12.272  74.333 -25.975  0.00  0.00    +0.000 C 
BRANCH   5   6
ATOM      6  C   UNL     1      13.501  74.538 -26.750  0.00  0.00    +0.000 A 
ATOM      7  C   UNL     1      14.484  75.324 -26.160  0.00  0.00    +0.000 A 
ATOM      8  C   UNL     1      15.823  75.144 -26.482  0.00  0.00    +0.000 A 
ATOM      9  C   UNL     1      16.226  74.053 -27.243  0.00  0.00    +0.000 A 
ATOM     10  O   UNL     1      17.365  73.311 -26.927  0.00  0.00    +0.000 OA
ATOM     11  C   UNL     1      15.252  73.513 -28.072  0.00  0.00    +0.000 A 
ATOM     12  C   UNL     1      13.914  73.785 -27.819  0.00  0.00    +0.000 A 
ENDBRANCH   5   6
ENDBRANCH   4   5
ENDBRANCH   2   3
ENDBRANCH  13   2
BRANCH  13  14
ATOM     14  C   UNL     1      11.592  79.178 -24.989  0.00  0.00    +0.000 C 
ATOM     15  O   UNL     1      11.054  79.451 -23.874  0.00  0.00    +0.000 OA
BRANCH  14  16
ATOM     16  C   UNL     1      13.044  78.966 -24.942  0.00  0.00    +0.000 C 
ATOM     17  C   UNL     1      13.762  79.795 -25.701  0.00  0.00    +0.000 C 
BRANCH  17  18
ATOM     18  C   UNL     1      13.341  79.875 -27.134  0.00  0.00    +0.000 C 
BRANCH  18  19
ATOM     19  C   UNL     1      14.014  78.734 -27.831  0.00  0.00    +0.000 A 
ATOM     20  C   UNL     1      13.343  77.853 -28.641  0.00  0.00    +0.000 A 
ATOM     21  C   UNL     1      14.084  77.027 -29.477  0.00  0.00    +0.000 A 
ATOM     22  C   UNL     1      15.430  77.278 -29.664  0.00  0.00    +0.000 A 
ATOM     23  O   UNL     1      16.160  76.510 -30.554  0.00  0.00    +0.000 OA
ATOM     24  C   UNL     1      16.105  77.845 -28.605  0.00  0.00    +0.000 A 
ATOM     25  C   UNL     1      15.391  78.736 -27.816  0.00  0.00    +0.000 A 
ENDBRANCH  18  19
ENDBRANCH  17  18
ENDBRANCH  14  16
ENDBRANCH  13  14
TORSDOF 8
ENDMDL
MODEL 6
REMARK VINA RESULT:      -4.7      1.961      6.427
REMARK  Name = 
REMARK  8 active torsions:
REMARK  status: ('A' for Active; 'I' for Inactive)
REMARK    1  A    between atoms: C_2  and  C_3
REMARK    2  A    between atoms: C_2  and  C_13
REMARK    3  A    between atoms: C_4  and  C_5
REMARK    4  A    between atoms: C_5  and  C_6
REMARK    5  A    between atoms: C_13  and  C_14
REMARK    6  A    between atoms: C_14  and  C_16
REMARK    7  A    between atoms: C_17  and  C_18
REMARK    8  A    between atoms: C_18  and  C_19
REMARK                            x       y       z     vdW  Elec       q    Type
REMARK                         _______ _______ _______ _____ _____    ______ ____
ROOT
ATOM     13  C   UNL     1     -12.110  71.560  20.725  0.00  0.00    +0.000 C 
ENDROOT
BRANCH  13   2
ATOM      1  O   UNL     1     -10.384  71.487  19.122  0.00  0.00    +0.000 OA
ATOM      2  C   UNL     1     -10.690  71.774  20.320  0.00  0.00    +0.000 C 
BRANCH   2   3
ATOM      3  C   UNL     1      -9.779  72.646  21.027  0.00  0.00    +0.000 C 
ATOM      4  C   UNL     1      -9.255  72.417  22.201  0.00  0.00    +0.000 C 
BRANCH   4   5
ATOM      5  C   UNL     1      -9.155  73.343  23.325  0.00  0.00    +0.000 C 
BRANCH   5   6
ATOM      6  C   UNL     1     -10.410  73.991  23.723  0.00  0.00    +0.000 A 
ATOM      7  C   UNL     1     -10.868  75.016  22.903  0.00  0.00    +0.000 A 
ATOM      8  C   UNL     1     -12.224  75.307  22.822  0.00  0.00    +0.000 A 
ATOM      9  C   UNL     1     -13.164  74.461  23.399  0.00  0.00    +0.000 A 
ATOM     10  O   UNL     1     -14.348  74.116  22.747  0.00  0.00    +0.000 OA
ATOM     11  C   UNL     1     -12.699  73.687  24.454  0.00  0.00    +0.000 A 
ATOM     12  C   UNL     1     -11.333  73.487  24.603  0.00  0.00    +0.000 A 
ENDBRANCH   5   6
ENDBRANCH   4   5
ENDBRANCH   2   3
ENDBRANCH  13   2
BRANCH  13  14
ATOM     14  C   UNL     1     -12.226  70.262  21.458  0.00  0.00    +0.000 C 
ATOM     15  O   UNL     1     -11.751  69.236  20.885  0.00  0.00    +0.000 OA
BRANCH  14  16
ATOM     16  C   UNL     1     -12.030  70.306  22.913  0.00  0.00    +0.000 C 
ATOM     17  C   UNL     1     -12.879  69.561  23.621  0.00  0.00    +0.000 C 
BRANCH  17  18
ATOM     18  C   UNL     1     -14.328  69.795  23.331  0.00  0.00    +0.000 C 
BRANCH  18  19
ATOM     19  C   UNL     1     -14.874  70.544  24.506  0.00  0.00    +0.000 A 
ATOM     20  C   UNL     1     -14.258  70.561  25.732  0.00  0.00    +0.000 A 
ATOM     21  C   UNL     1     -14.659  71.515  26.660  0.00  0.00    +0.000 A 
ATOM     22  C   UNL     1     -15.463  72.563  26.257  0.00  0.00    +0.000 A 
ATOM     23  O   UNL     1     -15.804  73.559  27.154  0.00  0.00    +0.000 OA
ATOM     24  C   UNL     1     -16.337  72.308  25.223  0.00  0.00    +0.000 A 
ATOM     25  C   UNL     1     -15.906  71.418  24.247  0.00  0.00    +0.000 A 
ENDBRANCH  18  19
ENDBRANCH  17  18
ENDBRANCH  14  16
ENDBRANCH  13  14
TORSDOF 8
ENDMDL
MODEL 7
REMARK VINA RESULT:      -4.7     26.960     30.225
REMARK  Name = 
REMARK  8 active torsions:
REMARK  status: ('A' for Active; 'I' for Inactive)
REMARK    1  A    between atoms: C_2  and  C_3
REMARK    2  A    between atoms: C_2  and  C_13
REMARK    3  A    between atoms: C_4  and  C_5
REMARK    4  A    between atoms: C_5  and  C_6
REMARK    5  A    between atoms: C_13  and  C_14
REMARK    6  A    between atoms: C_14  and  C_16
REMARK    7  A    between atoms: C_17  and  C_18
REMARK    8  A    between atoms: C_18  and  C_19
REMARK                            x       y       z     vdW  Elec       q    Type
REMARK                         _______ _______ _______ _____ _____    ______ ____
ROOT
ATOM     13  C   UNL     1       5.503  59.587   9.148  0.00  0.00    +0.000 C 
ENDROOT
BRANCH  13   2
ATOM      1  O   UNL     1       4.915  57.403   8.490  0.00  0.00    +0.000 OA
ATOM      2  C   UNL     1       5.786  58.125   9.064  0.00  0.00    +0.000 C 
BRANCH   2   3
ATOM      3  C   UNL     1       7.108  57.556   9.197  0.00  0.00    +0.000 C 
ATOM      4  C   UNL     1       7.987  57.425   8.240  0.00  0.00    +0.000 C 
BRANCH   4   5
ATOM      5  C   UNL     1       8.793  56.249   7.928  0.00  0.00    +0.000 C 
BRANCH   5   6
ATOM      6  C   UNL     1      10.234  56.490   7.791  0.00  0.00    +0.000 A 
ATOM      7  C   UNL     1      10.915  55.689   6.881  0.00  0.00    +0.000 A 
ATOM      8  C   UNL     1      12.068  56.148   6.258  0.00  0.00    +0.000 A 
ATOM      9  C   UNL     1      12.455  57.477   6.378  0.00  0.00    +0.000 A 
ATOM     10  O   UNL     1      12.925  58.212   5.288  0.00  0.00    +0.000 OA
ATOM     11  C   UNL     1      11.991  58.132   7.511  0.00  0.00    +0.000 A 
ATOM     12  C   UNL     1      10.905  57.612   8.202  0.00  0.00    +0.000 A 
ENDBRANCH   5   6
ENDBRANCH   4   5
ENDBRANCH   2   3
ENDBRANCH  13   2
BRANCH  13  14
ATOM     14  C   UNL     1       5.567  60.184   7.778  0.00  0.00    +0.000 C 
ATOM     15  O   UNL     1       4.595  60.920   7.429  0.00  0.00    +0.000 OA
BRANCH  14  16
ATOM     16  C   UNL     1       6.885  60.634   7.314  0.00  0.00    +0.000 C 
ATOM     17  C   UNL     1       7.106  60.486   6.008  0.00  0.00    +0.000 C 
BRANCH  17  18
ATOM     18  C   UNL     1       6.859  59.111   5.471  0.00  0.00    +0.000 C 
BRANCH  18  19
ATOM     19  C   UNL     1       8.164  58.645   4.903  0.00  0.00    +0.000 A 
ATOM     20  C   UNL     1       8.361  57.371   4.435  0.00  0.00    +0.000 A 
ATOM     21  C   UNL     1       9.484  57.119   3.656  0.00  0.00    +0.000 A 
ATOM     22  C   UNL     1      10.224  58.177   3.164  0.00  0.00    +0.000 A 
ATOM     23  O   UNL     1      11.297  57.941   2.325  0.00  0.00    +0.000 OA
ATOM     24  C   UNL     1      10.255  59.319   3.935  0.00  0.00    +0.000 A 
ATOM     25  C   UNL     1       9.103  59.619   4.650  0.00  0.00    +0.000 A 
ENDBRANCH  18  19
ENDBRANCH  17  18
ENDBRANCH  14  16
ENDBRANCH  13  14
TORSDOF 8
ENDMDL
MODEL 8
REMARK VINA RESULT:      -4.7      1.427      2.086
REMARK  Name = 
REMARK  8 active torsions:
REMARK  status: ('A' for Active; 'I' for Inactive)
REMARK    1  A    between atoms: C_2  and  C_3
REMARK    2  A    between atoms: C_2  and  C_13
REMARK    3  A    between atoms: C_4  and  C_5
REMARK    4  A    between atoms: C_5  and  C_6
REMARK    5  A    between atoms: C_13  and  C_14
REMARK    6  A    between atoms: C_14  and  C_16
REMARK    7  A    between atoms: C_17  and  C_18
REMARK    8  A    between atoms: C_18  and  C_19
REMARK                            x       y       z     vdW  Elec       q    Type
REMARK                         _______ _______ _______ _____ _____    ______ ____
ROOT
ATOM     13  C   UNL     1     -16.065  71.295  24.656  0.00  0.00    +0.000 C 
ENDROOT
BRANCH  13   2
ATOM      1  O   UNL     1     -17.341  72.688  23.248  0.00  0.00    +0.000 OA
ATOM      2  C   UNL     1     -16.299  71.971  23.347  0.00  0.00    +0.000 C 
BRANCH   2   3
ATOM      3  C   UNL     1     -15.259  72.207  22.371  0.00  0.00    +0.000 C 
ATOM      4  C   UNL     1     -14.867  71.368  21.451  0.00  0.00    +0.000 C 
BRANCH   4   5
ATOM      5  C   UNL     1     -13.495  71.019  21.093  0.00  0.00    +0.000 C 
BRANCH   5   6
ATOM      6  C   UNL     1     -12.849  70.029  21.962  0.00  0.00    +0.000 A 
ATOM      7  C   UNL     1     -12.182  70.523  23.078  0.00  0.00    +0.000 A 
ATOM      8  C   UNL     1     -12.035  69.742  24.217  0.00  0.00    +0.000 A 
ATOM      9  C   UNL     1     -12.715  68.537  24.341  0.00  0.00    +0.000 A 
ATOM     10  O   UNL     1     -13.340  68.160  25.531  0.00  0.00    +0.000 OA
ATOM     11  C   UNL     1     -13.069  67.928  23.145  0.00  0.00    +0.000 A 
ATOM     12  C   UNL     1     -13.107  68.683  21.981  0.00  0.00    +0.000 A 
ENDBRANCH   5   6
ENDBRANCH   4   5
ENDBRANCH   2   3
ENDBRANCH  13   2
BRANCH  13  14
ATOM     14  C   UNL     1     -15.480  72.275  25.622  0.00  0.00    +0.000 C 
ATOM     15  O   UNL     1     -16.198  72.598  26.616  0.00  0.00    +0.000 OA
BRANCH  14  16
ATOM     16  C   UNL     1     -14.046  72.143  25.909  0.00  0.00    +0.000 C 
ATOM     17  C   UNL     1     -13.364  73.289  25.921  0.00  0.00    +0.000 C 
BRANCH  17  18
ATOM     18  C   UNL     1     -13.527  74.142  24.703  0.00  0.00    +0.000 C 
BRANCH  18  19
ATOM     19  C   UNL     1     -12.202  74.130  24.005  0.00  0.00    +0.000 A 
ATOM     20  C   UNL     1     -11.032  73.782  24.630  0.00  0.00    +0.000 A 
ATOM     21  C   UNL     1      -9.920  73.504  23.845  0.00  0.00    +0.000 A 
ATOM     22  C   UNL     1     -10.073  73.334  22.483  0.00  0.00    +0.000 A 
ATOM     23  O   UNL     1      -8.987  72.980  21.703  0.00  0.00    +0.000 OA
ATOM     24  C   UNL     1     -11.085  74.050  21.881  0.00  0.00    +0.000 A 
ATOM     25  C   UNL     1     -12.233  74.258  22.634  0.00  0.00    +0.000 A 
ENDBRANCH  18  19
ENDBRANCH  17  18
ENDBRANCH  14  16
ENDBRANCH  13  14
TORSDOF 8
ENDMDL
MODEL 9
REMARK VINA RESULT:      -4.6     31.480     33.486
REMARK  Name = 
REMARK  8 active torsions:
REMARK  status: ('A' for Active; 'I' for Inactive)
REMARK    1  A    between atoms: C_2  and  C_3
REMARK    2  A    between atoms: C_2  and  C_13
REMARK    3  A    between atoms: C_4  and  C_5
REMARK    4  A    between atoms: C_5  and  C_6
REMARK    5  A    between atoms: C_13  and  C_14
REMARK    6  A    between atoms: C_14  and  C_16
REMARK    7  A    between atoms: C_17  and  C_18
REMARK    8  A    between atoms: C_18  and  C_19
REMARK                            x       y       z     vdW  Elec       q    Type
REMARK                         _______ _______ _______ _____ _____    ______ ____
ROOT
ATOM     13  C   UNL     1      23.150  67.927  16.268  0.00  0.00    +0.000 C 
ENDROOT
BRANCH  13   2
ATOM      1  O   UNL     1      22.104  67.588  18.353  0.00  0.00    +0.000 OA
ATOM      2  C   UNL     1      22.116  67.275  17.123  0.00  0.00    +0.000 C 
BRANCH   2   3
ATOM      3  C   UNL     1      20.911  66.669  16.600  0.00  0.00    +0.000 C 
ATOM      4  C   UNL     1      20.451  65.487  16.909  0.00  0.00    +0.000 C 
BRANCH   4   5
ATOM      5  C   UNL     1      19.957  64.460  15.997  0.00  0.00    +0.000 C 
BRANCH   5   6
ATOM      6  C   UNL     1      19.532  63.206  16.629  0.00  0.00    +0.000 A 
ATOM      7  C   UNL     1      19.457  63.204  18.017  0.00  0.00    +0.000 A 
ATOM      8  C   UNL     1      18.581  62.353  18.679  0.00  0.00    +0.000 A 
ATOM      9  C   UNL     1      17.627  61.633  17.971  0.00  0.00    +0.000 A 
ATOM     10  O   UNL     1      16.312  61.506  18.421  0.00  0.00    +0.000 OA
ATOM     11  C   UNL     1      17.932  61.388  16.639  0.00  0.00    +0.000 A 
ATOM     12  C   UNL     1      18.892  62.166  16.005  0.00  0.00    +0.000 A 
ENDBRANCH   5   6
ENDBRANCH   4   5
ENDBRANCH   2   3
ENDBRANCH  13   2
BRANCH  13  14
ATOM     14  C   UNL     1      22.680  69.292  15.877  0.00  0.00    +0.000 C 
ATOM     15  O   UNL     1      23.212  70.274  16.477  0.00  0.00    +0.000 OA
BRANCH  14  16
ATOM     16  C   UNL     1      22.403  69.511  14.452  0.00  0.00    +0.000 C 
ATOM     17  C   UNL     1      21.364  70.306  14.193  0.00  0.00    +0.000 C 
BRANCH  17  18
ATOM     18  C   UNL     1      20.085  69.927  14.872  0.00  0.00    +0.000 C 
BRANCH  18  19
ATOM     19  C   UNL     1      19.285  69.167  13.861  0.00  0.00    +0.000 A 
ATOM     20  C   UNL     1      18.586  68.027  14.165  0.00  0.00    +0.000 A 
ATOM     21  C   UNL     1      17.639  67.569  13.257  0.00  0.00    +0.000 A 
ATOM     22  C   UNL     1      17.245  68.386  12.215  0.00  0.00    +0.000 A 
ATOM     23  O   UNL     1      16.247  67.972  11.350  0.00  0.00    +0.000 OA
ATOM     24  C   UNL     1      18.188  69.265  11.728  0.00  0.00    +0.000 A 
ATOM     25  C   UNL     1      19.084  69.790  12.649  0.00  0.00    +0.000 A 
ENDBRANCH  18  19
ENDBRANCH  17  18
ENDBRANCH  14  16
ENDBRANCH  13  14
TORSDOF 8
ENDMDL
MODEL 10
REMARK VINA RESULT:      -4.6     19.023     21.968
REMARK  Name = 
REMARK  8 active torsions:
REMARK  status: ('A' for Active; 'I' for Inactive)
REMARK    1  A    between atoms: C_2  and  C_3
REMARK    2  A    between atoms: C_2  and  C_13
REMARK    3  A    between atoms: C_4  and  C_5
REMARK    4  A    between atoms: C_5  and  C_6
REMARK    5  A    between atoms: C_13  and  C_14
REMARK    6  A    between atoms: C_14  and  C_16
REMARK    7  A    between atoms: C_17  and  C_18
REMARK    8  A    between atoms: C_18  and  C_19
REMARK                            x       y       z     vdW  Elec       q    Type
REMARK                         _______ _______ _______ _____ _____    ______ ____
ROOT
ATOM     13  C   UNL     1       1.851  61.034   9.183  0.00  0.00    +0.000 C 
ENDROOT
BRANCH  13   2
ATOM      1  O   UNL     1       3.203  62.242  10.688  0.00  0.00    +0.000 OA
ATOM      2  C   UNL     1       2.072  61.697  10.501  0.00  0.00    +0.000 C 
BRANCH   2   3
ATOM      3  C   UNL     1       1.000  62.120  11.374  0.00  0.00    +0.000 C 
ATOM      4  C   UNL     1       0.538  61.455  12.398  0.00  0.00    +0.000 C 
BRANCH   4   5
ATOM      5  C   UNL     1      -0.860  61.209  12.740  0.00  0.00    +0.000 C 
BRANCH   5   6
ATOM      6  C   UNL     1      -1.321  59.828  12.557  0.00  0.00    +0.000 A 
ATOM      7  C   UNL     1      -1.731  59.153  13.701  0.00  0.00    +0.000 A 
ATOM      8  C   UNL     1      -2.668  58.131  13.623  0.00  0.00    +0.000 A 
ATOM      9  C   UNL     1      -3.359  57.895  12.441  0.00  0.00    +0.000 A 
ATOM     10  O   UNL     1      -4.729  57.628  12.426  0.00  0.00    +0.000 OA
ATOM     11  C   UNL     1      -2.719  58.316  11.283  0.00  0.00    +0.000 A 
ATOM     12  C   UNL     1      -1.702  59.257  11.370  0.00  0.00    +0.000 A 
ENDBRANCH   5   6
ENDBRANCH   4   5
ENDBRANCH   2   3
ENDBRANCH  13   2
BRANCH  13  14
ATOM     14  C   UNL     1       1.712  59.559   9.388  0.00  0.00    +0.000 C 
ATOM     15  O   UNL     1       0.936  58.941   8.598  0.00  0.00    +0.000 OA
BRANCH  14  16
ATOM     16  C   UNL     1       2.930  58.827   9.760  0.00  0.00    +0.000 C 
ATOM     17  C   UNL     1       2.737  57.778  10.562  0.00  0.00    +0.000 C 
BRANCH  17  18
ATOM     18  C   UNL     1       1.954  58.061  11.805  0.00  0.00    +0.000 C 
BRANCH  18  19
ATOM     19  C   UNL     1       1.136  56.836  12.071  0.00  0.00    +0.000 A 
ATOM     20  C   UNL     1       0.822  56.408  13.336  0.00  0.00    +0.000 A 
ATOM     21  C   UNL     1      -0.181  55.457  13.482  0.00  0.00    +0.000 A 
ATOM     22  C   UNL     1      -0.998  55.158  12.409  0.00  0.00    +0.000 A 
ATOM     23  O   UNL     1      -2.048  54.270  12.565  0.00  0.00    +0.000 OA
ATOM     24  C   UNL     1      -0.437  55.270  11.156  0.00  0.00    +0.000 A 
ATOM     25  C   UNL     1       0.506  56.275  10.983  0.00  0.00    +0.000 A 
ENDBRANCH  18  19
ENDBRANCH  17  18
ENDBRANCH  14  16
ENDBRANCH  13  14
TORSDOF 8
ENDMDL
