MODEL 1
REMARK VINA RESULT:      -7.7      0.000      0.000
REMARK  Name = 
REMARK  13 active torsions:
REMARK  status: ('A' for Active; 'I' for Inactive)
REMARK    1  A    between atoms: O_2  and  C_3
REMARK    2  A    between atoms: C_5  and  C_6
REMARK    3  A    between atoms: C_7  and  C_8
REMARK    4  A    between atoms: C_8  and  C_10
REMARK    5  A    between atoms: C_13  and  C_14
REMARK    6  A    between atoms: C_19  and  O_20
REMARK    7  A    between atoms: C_23  and  C_24
REMARK    8  A    between atoms: C_24  and  C_26
REMARK    9  A    between atoms: C_27  and  C_29
REMARK   10  A    between atoms: C_30  and  C_31
REMARK   11  A    between atoms: C_36  and  O_37
REMARK   12  A    between atoms: C_41  and  C_42
REMARK   13  A    between atoms: C_47  and  O_48
REMARK                            x       y       z     vdW  Elec       q    Type
REMARK                         _______ _______ _______ _____ _____    ______ ____
ROOT
ATOM     10  C   UNL     1       5.890  60.428   7.731  0.00  0.00    +0.000 C 
ATOM     11  C   UNL     1       6.139  59.119   7.669  0.00  0.00    +0.000 C 
ATOM     12  O   UNL     1       5.369  58.156   7.003  0.00  0.00    +0.000 OA
ATOM     13  C   UNL     1       6.466  57.266   6.409  0.00  0.00    +0.000 C 
ATOM     23  C   UNL     1       7.205  57.006   7.938  0.00  0.00    +0.000 C 
ATOM     40  C   UNL     1       7.429  58.582   8.047  0.00  0.00    +0.000 C 
ATOM     41  C   UNL     1       8.647  59.098   7.969  0.00  0.00    +0.000 C 
ENDROOT
BRANCH  13  14
ATOM     14  C   UNL     1       5.595  55.917   6.506  0.00  0.00    +0.000 A 
ATOM     15  C   UNL     1       4.265  56.076   6.146  0.00  0.00    +0.000 A 
ATOM     16  C   UNL     1       3.621  55.191   5.290  0.00  0.00    +0.000 A 
ATOM     17  C   UNL     1       4.366  54.304   4.526  0.00  0.00    +0.000 A 
ATOM     18  O   UNL     1       4.054  54.064   3.182  0.00  0.00    +0.000 OA
ATOM     19  C   UNL     1       5.592  53.945   5.072  0.00  0.00    +0.000 A 
ATOM     22  C   UNL     1       6.254  54.888   5.841  0.00  0.00    +0.000 A 
BRANCH  19  20
ATOM     20  O   UNL     1       6.313  53.014   4.313  0.00  0.00    +0.000 OA
ATOM     21  C   UNL     1       6.148  51.655   4.713  0.00  0.00    +0.000 C 
ENDBRANCH  19  20
ENDBRANCH  13  14
BRANCH  41  42
ATOM     42  C   UNL     1       9.718  58.481   7.165  0.00  0.00    +0.000 A 
ATOM     43  C   UNL     1      10.877  58.191   7.879  0.00  0.00    +0.000 A 
ATOM     44  C   UNL     1      12.136  58.354   7.310  0.00  0.00    +0.000 A 
ATOM     45  C   UNL     1      12.274  58.951   6.064  0.00  0.00    +0.000 A 
ATOM     46  O   UNL     1      13.532  59.263   5.544  0.00  0.00    +0.000 OA
ATOM     47  C   UNL     1      11.157  58.875   5.240  0.00  0.00    +0.000 A 
ATOM     50  C   UNL     1       9.908  58.765   5.838  0.00  0.00    +0.000 A 
BRANCH  47  48
ATOM     48  O   UNL     1      11.195  59.673   4.090  0.00  0.00    +0.000 OA
ATOM     49  C   UNL     1      10.242  59.614   3.065  0.00  0.00    +0.000 C 
ENDBRANCH  47  48
ENDBRANCH  41  42
BRANCH  10   8
ATOM      8  C   UNL     1       4.859  61.054   6.892  0.00  0.00    +0.000 C 
ATOM      9  O   UNL     1       5.257  61.648   5.853  0.00  0.00    +0.000 OA
BRANCH   8   7
ATOM      6  C   UNL     1       3.433  61.808   8.781  0.00  0.00    +0.000 C 
ATOM      7  C   UNL     1       3.692  61.437   7.613  0.00  0.00    +0.000 C 
BRANCH   6   5
ATOM      3  C   UNL     1       1.814  59.120  10.593  0.00  0.00    +0.000 A 
ATOM      4  C   UNL     1       2.828  59.750   9.912  0.00  0.00    +0.000 A 
ATOM      5  C   UNL     1       3.062  61.119   9.989  0.00  0.00    +0.000 A 
ATOM     51  C   UNL     1       2.515  61.742  11.105  0.00  0.00    +0.000 A 
ATOM     52  C   UNL     1       1.665  61.056  11.963  0.00  0.00    +0.000 A 
ATOM     53  C   UNL     1       1.170  59.809  11.607  0.00  0.00    +0.000 A 
ATOM     54  O   UNL     1       0.039  59.332  12.232  0.00  0.00    +0.000 OA
BRANCH   3   2
ATOM      1  C   UNL     1       0.732  57.575   9.521  0.00  0.00    +0.000 C 
ATOM      2  O   UNL     1       1.260  57.906  10.221  0.00  0.00    +0.000 OA
ENDBRANCH   3   2
ENDBRANCH   6   5
ENDBRANCH   8   7
ENDBRANCH  10   8
BRANCH  23  24
ATOM     24  C   UNL     1       5.873  56.981   8.821  0.00  0.00    +0.000 C 
ATOM     25  O   UNL     1       5.843  57.761   9.821  0.00  0.00    +0.000 OA
BRANCH  24  26
ATOM     26  C   UNL     1       5.363  55.651   9.191  0.00  0.00    +0.000 C 
ATOM     27  C   UNL     1       5.424  55.219  10.451  0.00  0.00    +0.000 C 
ATOM     28  O   UNL     1       6.646  55.511  11.069  0.00  0.00    +0.000 OA
BRANCH  27  29
ATOM     29  C   UNL     1       4.889  53.877  10.694  0.00  0.00    +0.000 C 
ATOM     30  C   UNL     1       5.414  53.014  11.531  0.00  0.00    +0.000 C 
BRANCH  30  31
ATOM     31  C   UNL     1       4.668  52.283  12.544  0.00  0.00    +0.000 A 
ATOM     32  C   UNL     1       3.314  52.552  12.700  0.00  0.00    +0.000 A 
ATOM     33  C   UNL     1       2.697  52.449  13.935  0.00  0.00    +0.000 A 
ATOM     34  C   UNL     1       3.381  51.920  15.011  0.00  0.00    +0.000 A 
ATOM     35  O   UNL     1       3.034  52.238  16.325  0.00  0.00    +0.000 OA
ATOM     36  C   UNL     1       4.621  51.355  14.768  0.00  0.00    +0.000 A 
ATOM     39  C   UNL     1       5.258  51.562  13.560  0.00  0.00    +0.000 A 
BRANCH  36  37
ATOM     37  O   UNL     1       5.160  50.593  15.794  0.00  0.00    +0.000 OA
ATOM     38  C   UNL     1       6.327  51.099  16.438  0.00  0.00    +0.000 C 
ENDBRANCH  36  37
ENDBRANCH  30  31
ENDBRANCH  27  29
ENDBRANCH  24  26
ENDBRANCH  23  24
TORSDOF 13
ENDMDL
MODEL 2
REMARK VINA RESULT:      -7.5     16.287     21.121
REMARK  Name = 
REMARK  13 active torsions:
REMARK  status: ('A' for Active; 'I' for Inactive)
REMARK    1  A    between atoms: O_2  and  C_3
REMARK    2  A    between atoms: C_5  and  C_6
REMARK    3  A    between atoms: C_7  and  C_8
REMARK    4  A    between atoms: C_8  and  C_10
REMARK    5  A    between atoms: C_13  and  C_14
REMARK    6  A    between atoms: C_19  and  O_20
REMARK    7  A    between atoms: C_23  and  C_24
REMARK    8  A    between atoms: C_24  and  C_26
REMARK    9  A    between atoms: C_27  and  C_29
REMARK   10  A    between atoms: C_30  and  C_31
REMARK   11  A    between atoms: C_36  and  O_37
REMARK   12  A    between atoms: C_41  and  C_42
REMARK   13  A    between atoms: C_47  and  O_48
REMARK                            x       y       z     vdW  Elec       q    Type
REMARK                         _______ _______ _______ _____ _____    ______ ____
ROOT
ATOM     10  C   UNL     1      21.552  67.134  17.822  0.00  0.00    +0.000 C 
ATOM     11  C   UNL     1      21.108  66.871  16.592  0.00  0.00    +0.000 C 
ATOM     12  O   UNL     1      21.646  67.356  15.393  0.00  0.00    +0.000 OA
ATOM     13  C   UNL     1      21.531  66.116  14.499  0.00  0.00    +0.000 C 
ATOM     23  C   UNL     1      19.846  65.953  14.792  0.00  0.00    +0.000 C 
ATOM     40  C   UNL     1      20.178  65.789  16.345  0.00  0.00    +0.000 C 
ATOM     41  C   UNL     1      20.012  64.624  16.951  0.00  0.00    +0.000 C 
ENDROOT
BRANCH  13  14
ATOM     14  C   UNL     1      21.300  66.959  13.148  0.00  0.00    +0.000 A 
ATOM     15  C   UNL     1      22.159  68.038  13.001  0.00  0.00    +0.000 A 
ATOM     16  C   UNL     1      22.826  68.294  11.810  0.00  0.00    +0.000 A 
ATOM     17  C   UNL     1      22.898  67.311  10.834  0.00  0.00    +0.000 A 
ATOM     18  O   UNL     1      24.086  67.067  10.135  0.00  0.00    +0.000 OA
ATOM     19  C   UNL     1      21.847  66.401  10.839  0.00  0.00    +0.000 A 
ATOM     22  C   UNL     1      21.269  66.093  12.060  0.00  0.00    +0.000 A 
BRANCH  19  20
ATOM     20  O   UNL     1      21.908  65.442   9.820  0.00  0.00    +0.000 OA
ATOM     21  C   UNL     1      20.681  65.224   9.125  0.00  0.00    +0.000 C 
ENDBRANCH  19  20
ENDBRANCH  13  14
BRANCH  41  42
ATOM     42  C   UNL     1      20.180  63.337  16.252  0.00  0.00    +0.000 A 
ATOM     43  C   UNL     1      18.985  62.703  15.921  0.00  0.00    +0.000 A 
ATOM     44  C   UNL     1      18.855  61.321  15.997  0.00  0.00    +0.000 A 
ATOM     45  C   UNL     1      19.869  60.547  16.546  0.00  0.00    +0.000 A 
ATOM     46  O   UNL     1      19.697  59.179  16.772  0.00  0.00    +0.000 OA
ATOM     47  C   UNL     1      21.138  61.111  16.506  0.00  0.00    +0.000 A 
ATOM     50  C   UNL     1      21.238  62.497  16.484  0.00  0.00    +0.000 A 
BRANCH  47  48
ATOM     48  O   UNL     1      22.118  60.460  17.264  0.00  0.00    +0.000 OA
ATOM     49  C   UNL     1      22.172  60.489  18.664  0.00  0.00    +0.000 C 
ENDBRANCH  47  48
ENDBRANCH  41  42
BRANCH  10   8
ATOM      8  C   UNL     1      22.836  67.812  18.047  0.00  0.00    +0.000 C 
ATOM      9  O   UNL     1      23.658  67.232  18.807  0.00  0.00    +0.000 OA
BRANCH   8   7
ATOM      6  C   UNL     1      22.080  70.036  17.238  0.00  0.00    +0.000 C 
ATOM      7  C   UNL     1      22.765  69.228  17.906  0.00  0.00    +0.000 C 
BRANCH   6   5
ATOM      3  C   UNL     1      23.637  72.368  14.944  0.00  0.00    +0.000 A 
ATOM      4  C   UNL     1      23.480  71.186  15.626  0.00  0.00    +0.000 A 
ATOM      5  C   UNL     1      22.237  70.649  15.945  0.00  0.00    +0.000 A 
ATOM     51  C   UNL     1      21.182  71.125  15.176  0.00  0.00    +0.000 A 
ATOM     52  C   UNL     1      21.362  72.176  14.284  0.00  0.00    +0.000 A 
ATOM     53  C   UNL     1      22.536  72.914  14.304  0.00  0.00    +0.000 A 
ATOM     54  O   UNL     1      22.549  74.171  13.740  0.00  0.00    +0.000 OA
BRANCH   3   2
ATOM      1  C   UNL     1      25.302  73.562  15.658  0.00  0.00    +0.000 C 
ATOM      2  O   UNL     1      24.775  73.156  14.998  0.00  0.00    +0.000 OA
ENDBRANCH   3   2
ENDBRANCH   6   5
ENDBRANCH   8   7
ENDBRANCH  10   8
BRANCH  23  24
ATOM     24  C   UNL     1      19.489  67.509  14.877  0.00  0.00    +0.000 C 
ATOM     25  O   UNL     1      18.845  67.887  15.903  0.00  0.00    +0.000 OA
BRANCH  24  26
ATOM     26  C   UNL     1      18.920  68.112  13.661  0.00  0.00    +0.000 C 
ATOM     27  C   UNL     1      17.714  67.754  13.218  0.00  0.00    +0.000 C 
ATOM     28  O   UNL     1      17.500  66.372  13.277  0.00  0.00    +0.000 OA
BRANCH  27  29
ATOM     29  C   UNL     1      17.258  68.420  11.996  0.00  0.00    +0.000 C 
ATOM     30  C   UNL     1      17.476  69.684  11.719  0.00  0.00    +0.000 C 
BRANCH  30  31
ATOM     31  C   UNL     1      18.009  70.176  10.458  0.00  0.00    +0.000 A 
ATOM     32  C   UNL     1      17.748  71.491  10.092  0.00  0.00    +0.000 A 
ATOM     33  C   UNL     1      17.619  71.856   8.763  0.00  0.00    +0.000 A 
ATOM     34  C   UNL     1      17.906  70.949   7.762  0.00  0.00    +0.000 A 
ATOM     35  O   UNL     1      17.342  71.062   6.491  0.00  0.00    +0.000 OA
ATOM     36  C   UNL     1      18.477  69.744   8.134  0.00  0.00    +0.000 A 
ATOM     39  C   UNL     1      18.498  69.361   9.461  0.00  0.00    +0.000 A 
BRANCH  36  37
ATOM     37  O   UNL     1      19.006  68.974   7.109  0.00  0.00    +0.000 OA
ATOM     38  C   UNL     1      18.475  67.661   6.939  0.00  0.00    +0.000 C 
ENDBRANCH  36  37
ENDBRANCH  30  31
ENDBRANCH  27  29
ENDBRANCH  24  26
ENDBRANCH  23  24
TORSDOF 13
ENDMDL
MODEL 3
REMARK VINA RESULT:      -7.4     23.817     28.167
REMARK  Name = 
REMARK  13 active torsions:
REMARK  status: ('A' for Active; 'I' for Inactive)
REMARK    1  A    between atoms: O_2  and  C_3
REMARK    2  A    between atoms: C_5  and  C_6
REMARK    3  A    between atoms: C_7  and  C_8
REMARK    4  A    between atoms: C_8  and  C_10
REMARK    5  A    between atoms: C_13  and  C_14
REMARK    6  A    between atoms: C_19  and  O_20
REMARK    7  A    between atoms: C_23  and  C_24
REMARK    8  A    between atoms: C_24  and  C_26
REMARK    9  A    between atoms: C_27  and  C_29
REMARK   10  A    between atoms: C_30  and  C_31
REMARK   11  A    between atoms: C_36  and  O_37
REMARK   12  A    between atoms: C_41  and  C_42
REMARK   13  A    between atoms: C_47  and  O_48
REMARK                            x       y       z     vdW  Elec       q    Type
REMARK                         _______ _______ _______ _____ _____    ______ ____
ROOT
ATOM     10  C   UNL     1      24.198  44.007  18.905  0.00  0.00    +0.000 C 
ATOM     11  C   UNL     1      24.808  42.965  19.473  0.00  0.00    +0.000 C 
ATOM     12  O   UNL     1      24.684  41.622  19.095  0.00  0.00    +0.000 OA
ATOM     13  C   UNL     1      26.130  41.139  19.257  0.00  0.00    +0.000 C 
ATOM     23  C   UNL     1      26.216  41.667  20.890  0.00  0.00    +0.000 C 
ATOM     40  C   UNL     1      25.922  43.150  20.378  0.00  0.00    +0.000 C 
ATOM     41  C   UNL     1      26.866  44.079  20.425  0.00  0.00    +0.000 C 
ENDROOT
BRANCH  13  14
ATOM     14  C   UNL     1      25.714  39.642  19.675  0.00  0.00    +0.000 A 
ATOM     15  C   UNL     1      24.772  39.063  18.837  0.00  0.00    +0.000 A 
ATOM     16  C   UNL     1      24.914  37.770  18.348  0.00  0.00    +0.000 A 
ATOM     17  C   UNL     1      26.144  37.134  18.427  0.00  0.00    +0.000 A 
ATOM     18  O   UNL     1      26.645  36.386  17.355  0.00  0.00    +0.000 OA
ATOM     19  C   UNL     1      26.957  37.554  19.473  0.00  0.00    +0.000 A 
ATOM     22  C   UNL     1      26.860  38.878  19.871  0.00  0.00    +0.000 A 
BRANCH  19  20
ATOM     20  O   UNL     1      28.176  36.872  19.568  0.00  0.00    +0.000 OA
ATOM     21  C   UNL     1      29.331  37.662  19.289  0.00  0.00    +0.000 C 
ENDBRANCH  19  20
ENDBRANCH  13  14
BRANCH  41  42
ATOM     42  C   UNL     1      28.298  43.760  20.282  0.00  0.00    +0.000 A 
ATOM     43  C   UNL     1      29.106  44.288  21.285  0.00  0.00    +0.000 A 
ATOM     44  C   UNL     1      30.377  44.778  21.006  0.00  0.00    +0.000 A 
ATOM     45  C   UNL     1      30.817  44.889  19.693  0.00  0.00    +0.000 A 
ATOM     46  O   UNL     1      32.024  45.519  19.383  0.00  0.00    +0.000 OA
ATOM     47  C   UNL     1      30.198  44.040  18.784  0.00  0.00    +0.000 A 
ATOM     50  C   UNL     1      28.908  43.608  19.065  0.00  0.00    +0.000 A 
BRANCH  47  48
ATOM     48  O   UNL     1      30.453  44.305  17.433  0.00  0.00    +0.000 OA
ATOM     49  C   UNL     1      30.415  43.334  16.424  0.00  0.00    +0.000 C 
ENDBRANCH  47  48
ENDBRANCH  41  42
BRANCH  10   8
ATOM      8  C   UNL     1      23.473  43.873  17.634  0.00  0.00    +0.000 C 
ATOM      9  O   UNL     1      22.342  43.318  17.683  0.00  0.00    +0.000 OA
BRANCH   8   7
ATOM      6  C   UNL     1      25.540  44.016  16.263  0.00  0.00    +0.000 C 
ATOM      7  C   UNL     1      24.326  43.814  16.495  0.00  0.00    +0.000 C 
BRANCH   6   5
ATOM      3  C   UNL     1      27.524  46.967  16.953  0.00  0.00    +0.000 A 
ATOM      4  C   UNL     1      27.285  45.632  16.731  0.00  0.00    +0.000 A 
ATOM      5  C   UNL     1      26.303  45.168  15.862  0.00  0.00    +0.000 A 
ATOM     51  C   UNL     1      25.879  46.092  14.915  0.00  0.00    +0.000 A 
ATOM     52  C   UNL     1      26.299  47.415  14.966  0.00  0.00    +0.000 A 
ATOM     53  C   UNL     1      26.968  47.892  16.085  0.00  0.00    +0.000 A 
ATOM     54  O   UNL     1      27.008  49.249  16.316  0.00  0.00    +0.000 OA
BRANCH   3   2
ATOM      1  C   UNL     1      28.126  47.300  19.010  0.00  0.00    +0.000 C 
ATOM      2  O   UNL     1      28.133  47.473  18.090  0.00  0.00    +0.000 OA
ENDBRANCH   3   2
ENDBRANCH   6   5
ENDBRANCH   8   7
ENDBRANCH  10   8
BRANCH  23  24
ATOM     24  C   UNL     1      24.705  41.347  21.301  0.00  0.00    +0.000 C 
ATOM     25  O   UNL     1      24.051  42.294  21.836  0.00  0.00    +0.000 OA
BRANCH  24  26
ATOM     26  C   UNL     1      24.483  40.090  22.034  0.00  0.00    +0.000 C 
ATOM     27  C   UNL     1      24.587  40.044  23.363  0.00  0.00    +0.000 C 
ATOM     28  O   UNL     1      25.690  40.756  23.848  0.00  0.00    +0.000 OA
BRANCH  27  29
ATOM     29  C   UNL     1      24.348  38.736  23.979  0.00  0.00    +0.000 C 
ATOM     30  C   UNL     1      23.165  38.290  24.327  0.00  0.00    +0.000 C 
BRANCH  30  31
ATOM     31  C   UNL     1      22.638  36.979  23.979  0.00  0.00    +0.000 A 
ATOM     32  C   UNL     1      22.239  36.128  25.002  0.00  0.00    +0.000 A 
ATOM     33  C   UNL     1      22.348  34.753  24.878  0.00  0.00    +0.000 A 
ATOM     34  C   UNL     1      22.709  34.190  23.671  0.00  0.00    +0.000 A 
ATOM     35  O   UNL     1      23.309  32.932  23.601  0.00  0.00    +0.000 OA
ATOM     36  C   UNL     1      22.789  35.028  22.571  0.00  0.00    +0.000 A 
ATOM     39  C   UNL     1      22.780  36.400  22.737  0.00  0.00    +0.000 A 
BRANCH  36  37
ATOM     37  O   UNL     1      22.878  34.410  21.333  0.00  0.00    +0.000 OA
ATOM     38  C   UNL     1      23.931  34.830  20.469  0.00  0.00    +0.000 C 
ENDBRANCH  36  37
ENDBRANCH  30  31
ENDBRANCH  27  29
ENDBRANCH  24  26
ENDBRANCH  23  24
TORSDOF 13
ENDMDL
MODEL 4
REMARK VINA RESULT:      -7.4     16.229     22.547
REMARK  Name = 
REMARK  13 active torsions:
REMARK  status: ('A' for Active; 'I' for Inactive)
REMARK    1  A    between atoms: O_2  and  C_3
REMARK    2  A    between atoms: C_5  and  C_6
REMARK    3  A    between atoms: C_7  and  C_8
REMARK    4  A    between atoms: C_8  and  C_10
REMARK    5  A    between atoms: C_13  and  C_14
REMARK    6  A    between atoms: C_19  and  O_20
REMARK    7  A    between atoms: C_23  and  C_24
REMARK    8  A    between atoms: C_24  and  C_26
REMARK    9  A    between atoms: C_27  and  C_29
REMARK   10  A    between atoms: C_30  and  C_31
REMARK   11  A    between atoms: C_36  and  O_37
REMARK   12  A    between atoms: C_41  and  C_42
REMARK   13  A    between atoms: C_47  and  O_48
REMARK                            x       y       z     vdW  Elec       q    Type
REMARK                         _______ _______ _______ _____ _____    ______ ____
ROOT
ATOM     10  C   UNL     1      20.515  67.546  17.186  0.00  0.00    +0.000 C 
ATOM     11  C   UNL     1      20.769  68.129  16.013  0.00  0.00    +0.000 C 
ATOM     12  O   UNL     1      22.032  68.344  15.447  0.00  0.00    +0.000 OA
ATOM     13  C   UNL     1      21.748  68.034  13.973  0.00  0.00    +0.000 C 
ATOM     23  C   UNL     1      20.461  69.169  13.892  0.00  0.00    +0.000 C 
ATOM     40  C   UNL     1      19.720  68.341  15.038  0.00  0.00    +0.000 C 
ATOM     41  C   UNL     1      18.623  67.649  14.769  0.00  0.00    +0.000 C 
ENDROOT
BRANCH  13  14
ATOM     14  C   UNL     1      22.826  69.090  13.416  0.00  0.00    +0.000 A 
ATOM     15  C   UNL     1      23.966  69.201  14.199  0.00  0.00    +0.000 A 
ATOM     16  C   UNL     1      25.243  69.191  13.651  0.00  0.00    +0.000 A 
ATOM     17  C   UNL     1      25.430  68.760  12.345  0.00  0.00    +0.000 A 
ATOM     18  O   UNL     1      26.501  67.925  12.003  0.00  0.00    +0.000 OA
ATOM     19  C   UNL     1      24.335  68.932  11.507  0.00  0.00    +0.000 A 
ATOM     22  C   UNL     1      23.073  68.837  12.070  0.00  0.00    +0.000 A 
BRANCH  19  20
ATOM     20  O   UNL     1      24.553  68.535  10.182  0.00  0.00    +0.000 OA
ATOM     21  C   UNL     1      23.809  67.390   9.767  0.00  0.00    +0.000 C 
ENDBRANCH  19  20
ENDBRANCH  13  14
BRANCH  41  42
ATOM     42  C   UNL     1      18.380  67.033  13.451  0.00  0.00    +0.000 A 
ATOM     43  C   UNL     1      19.286  66.031  13.111  0.00  0.00    +0.000 A 
ATOM     44  C   UNL     1      19.738  65.880  11.805  0.00  0.00    +0.000 A 
ATOM     45  C   UNL     1      19.412  66.817  10.833  0.00  0.00    +0.000 A 
ATOM     46  O   UNL     1      19.980  66.767   9.558  0.00  0.00    +0.000 OA
ATOM     47  C   UNL     1      18.255  67.547  11.073  0.00  0.00    +0.000 A 
ATOM     50  C   UNL     1      17.856  67.726  12.392  0.00  0.00    +0.000 A 
BRANCH  47  48
ATOM     48  O   UNL     1      18.047  68.649  10.237  0.00  0.00    +0.000 OA
ATOM     49  C   UNL     1      18.409  69.962  10.568  0.00  0.00    +0.000 C 
ENDBRANCH  47  48
ENDBRANCH  41  42
BRANCH  10   8
ATOM      8  C   UNL     1      21.564  66.845  17.938  0.00  0.00    +0.000 C 
ATOM      9  O   UNL     1      22.525  67.546  18.357  0.00  0.00    +0.000 OA
BRANCH   8   7
ATOM      6  C   UNL     1      22.043  64.820  16.581  0.00  0.00    +0.000 C 
ATOM      7  C   UNL     1      21.691  65.469  17.593  0.00  0.00    +0.000 C 
BRANCH   6   5
ATOM      3  C   UNL     1      19.592  62.647  15.033  0.00  0.00    +0.000 A 
ATOM      4  C   UNL     1      20.060  63.786  15.644  0.00  0.00    +0.000 A 
ATOM      5  C   UNL     1      21.342  64.286  15.442  0.00  0.00    +0.000 A 
ATOM     51  C   UNL     1      21.966  63.842  14.282  0.00  0.00    +0.000 A 
ATOM     52  C   UNL     1      21.395  62.849  13.497  0.00  0.00    +0.000 A 
ATOM     53  C   UNL     1      20.308  62.125  13.968  0.00  0.00    +0.000 A 
ATOM     54  O   UNL     1      20.017  60.905  13.401  0.00  0.00    +0.000 OA
BRANCH   3   2
ATOM      1  C   UNL     1      18.301  61.487  16.334  0.00  0.00    +0.000 C 
ATOM      2  O   UNL     1      18.550  61.873  15.517  0.00  0.00    +0.000 OA
ENDBRANCH   3   2
ENDBRANCH   6   5
ENDBRANCH   8   7
ENDBRANCH  10   8
BRANCH  23  24
ATOM     24  C   UNL     1      21.078  70.268  14.874  0.00  0.00    +0.000 C 
ATOM     25  O   UNL     1      20.478  70.442  15.978  0.00  0.00    +0.000 OA
BRANCH  24  26
ATOM     26  C   UNL     1      21.422  71.564  14.266  0.00  0.00    +0.000 C 
ATOM     27  C   UNL     1      22.494  72.247  14.668  0.00  0.00    +0.000 C 
ATOM     28  O   UNL     1      22.645  72.256  16.059  0.00  0.00    +0.000 OA
BRANCH  27  29
ATOM     29  C   UNL     1      22.729  73.525  13.991  0.00  0.00    +0.000 C 
ATOM     30  C   UNL     1      23.905  74.095  13.878  0.00  0.00    +0.000 C 
BRANCH  30  31
ATOM     31  C   UNL     1      24.462  74.607  12.635  0.00  0.00    +0.000 A 
ATOM     32  C   UNL     1      23.910  75.754  12.078  0.00  0.00    +0.000 A 
ATOM     33  C   UNL     1      23.882  75.948  10.708  0.00  0.00    +0.000 A 
ATOM     34  C   UNL     1      24.548  75.077   9.869  0.00  0.00    +0.000 A 
ATOM     35  O   UNL     1      24.166  74.909   8.537  0.00  0.00    +0.000 OA
ATOM     36  C   UNL     1      25.365  74.123  10.453  0.00  0.00    +0.000 A 
ATOM     39  C   UNL     1      25.295  73.881  11.811  0.00  0.00    +0.000 A 
BRANCH  36  37
ATOM     37  O   UNL     1      26.227  73.450   9.601  0.00  0.00    +0.000 OA
ATOM     38  C   UNL     1      26.021  72.048   9.440  0.00  0.00    +0.000 C 
ENDBRANCH  36  37
ENDBRANCH  30  31
ENDBRANCH  27  29
ENDBRANCH  24  26
ENDBRANCH  23  24
TORSDOF 13
ENDMDL
MODEL 5
REMARK VINA RESULT:      -7.3     22.081     27.362
REMARK  Name = 
REMARK  13 active torsions:
REMARK  status: ('A' for Active; 'I' for Inactive)
REMARK    1  A    between atoms: O_2  and  C_3
REMARK    2  A    between atoms: C_5  and  C_6
REMARK    3  A    between atoms: C_7  and  C_8
REMARK    4  A    between atoms: C_8  and  C_10
REMARK    5  A    between atoms: C_13  and  C_14
REMARK    6  A    between atoms: C_19  and  O_20
REMARK    7  A    between atoms: C_23  and  C_24
REMARK    8  A    between atoms: C_24  and  C_26
REMARK    9  A    between atoms: C_27  and  C_29
REMARK   10  A    between atoms: C_30  and  C_31
REMARK   11  A    between atoms: C_36  and  O_37
REMARK   12  A    between atoms: C_41  and  C_42
REMARK   13  A    between atoms: C_47  and  O_48
REMARK                            x       y       z     vdW  Elec       q    Type
REMARK                         _______ _______ _______ _____ _____    ______ ____
ROOT
ATOM     10  C   UNL     1      11.679  61.210 -11.523  0.00  0.00    +0.000 C 
ATOM     11  C   UNL     1      12.455  61.849 -12.399  0.00  0.00    +0.000 C 
ATOM     12  O   UNL     1      12.078  62.302 -13.670  0.00  0.00    +0.000 OA
ATOM     13  C   UNL     1      12.805  63.650 -13.727  0.00  0.00    +0.000 C 
ATOM     23  C   UNL     1      14.331  62.942 -13.382  0.00  0.00    +0.000 C 
ATOM     40  C   UNL     1      13.725  62.420 -12.000  0.00  0.00    +0.000 C 
ATOM     41  C   UNL     1      14.128  62.936 -10.849  0.00  0.00    +0.000 C 
ENDROOT
BRANCH  13  14
ATOM     14  C   UNL     1      13.043  63.593 -15.317  0.00  0.00    +0.000 A 
ATOM     15  C   UNL     1      11.982  63.055 -16.029  0.00  0.00    +0.000 A 
ATOM     16  C   UNL     1      11.482  63.656 -17.177  0.00  0.00    +0.000 A 
ATOM     17  C   UNL     1      11.820  64.970 -17.471  0.00  0.00    +0.000 A 
ATOM     18  O   UNL     1      10.863  65.878 -17.939  0.00  0.00    +0.000 OA
ATOM     19  C   UNL     1      13.046  65.388 -16.968  0.00  0.00    +0.000 A 
ATOM     22  C   UNL     1      13.469  64.839 -15.768  0.00  0.00    +0.000 A 
BRANCH  19  20
ATOM     20  O   UNL     1      13.394  66.700 -17.310  0.00  0.00    +0.000 OA
ATOM     21  C   UNL     1      13.569  67.585 -16.204  0.00  0.00    +0.000 C 
ENDBRANCH  19  20
ENDBRANCH  13  14
BRANCH  41  42
ATOM     42  C   UNL     1      14.567  64.337 -10.720  0.00  0.00    +0.000 A 
ATOM     43  C   UNL     1      13.542  65.272 -10.835  0.00  0.00    +0.000 A 
ATOM     44  C   UNL     1      13.740  66.485 -11.486  0.00  0.00    +0.000 A 
ATOM     45  C   UNL     1      14.924  66.735 -12.167  0.00  0.00    +0.000 A 
ATOM     46  O   UNL     1      15.083  67.879 -12.952  0.00  0.00    +0.000 OA
ATOM     47  C   UNL     1      16.025  66.004 -11.736  0.00  0.00    +0.000 A 
ATOM     50  C   UNL     1      15.798  64.771 -11.136  0.00  0.00    +0.000 A 
BRANCH  47  48
ATOM     48  O   UNL     1      17.154  66.063 -12.560  0.00  0.00    +0.000 OA
ATOM     49  C   UNL     1      18.350  66.703 -12.206  0.00  0.00    +0.000 C 
ENDBRANCH  47  48
ENDBRANCH  41  42
BRANCH  10   8
ATOM      8  C   UNL     1      10.226  61.102 -11.719  0.00  0.00    +0.000 C 
ATOM      9  O   UNL     1       9.496  61.740 -10.914  0.00  0.00    +0.000 OA
BRANCH   8   7
ATOM      6  C   UNL     1      10.380  58.997 -13.029  0.00  0.00    +0.000 C 
ATOM      7  C   UNL     1       9.825  59.888 -12.346  0.00  0.00    +0.000 C 
BRANCH   6   5
ATOM      3  C   UNL     1      12.474  58.576 -15.955  0.00  0.00    +0.000 A 
ATOM      4  C   UNL     1      11.761  58.183 -14.848  0.00  0.00    +0.000 A 
ATOM      5  C   UNL     1      10.584  58.802 -14.441  0.00  0.00    +0.000 A 
ATOM     51  C   UNL     1       9.937  59.533 -15.430  0.00  0.00    +0.000 A 
ATOM     52  C   UNL     1      10.533  59.748 -16.667  0.00  0.00    +0.000 A 
ATOM     53  C   UNL     1      11.869  59.430 -16.863  0.00  0.00    +0.000 A 
ATOM     54  O   UNL     1      12.552  60.010 -17.909  0.00  0.00    +0.000 OA
BRANCH   3   2
ATOM      1  C   UNL     1      14.441  57.663 -15.906  0.00  0.00    +0.000 C 
ATOM      2  O   UNL     1      13.823  58.326 -16.145  0.00  0.00    +0.000 OA
ENDBRANCH   3   2
ENDBRANCH   6   5
ENDBRANCH   8   7
ENDBRANCH  10   8
BRANCH  23  24
ATOM     24  C   UNL     1      14.115  61.567 -14.169  0.00  0.00    +0.000 C 
ATOM     25  O   UNL     1      14.180  60.504 -13.481  0.00  0.00    +0.000 OA
BRANCH  24  26
ATOM     26  C   UNL     1      14.867  61.414 -15.426  0.00  0.00    +0.000 C 
ATOM     27  C   UNL     1      16.114  60.941 -15.425  0.00  0.00    +0.000 C 
ATOM     28  O   UNL     1      16.899  61.475 -14.397  0.00  0.00    +0.000 OA
BRANCH  27  29
ATOM     29  C   UNL     1      16.760  60.839 -16.736  0.00  0.00    +0.000 C 
ATOM     30  C   UNL     1      17.373  59.765 -17.174  0.00  0.00    +0.000 C 
BRANCH  30  31
ATOM     31  C   UNL     1      17.151  59.157 -18.477  0.00  0.00    +0.000 A 
ATOM     32  C   UNL     1      17.332  57.786 -18.613  0.00  0.00    +0.000 A 
ATOM     33  C   UNL     1      17.776  57.233 -19.802  0.00  0.00    +0.000 A 
ATOM     34  C   UNL     1      17.894  58.017 -20.932  0.00  0.00    +0.000 A 
ATOM     35  O   UNL     1      18.769  57.681 -21.966  0.00  0.00    +0.000 OA
ATOM     36  C   UNL     1      17.402  59.310 -20.869  0.00  0.00    +0.000 A 
ATOM     39  C   UNL     1      17.065  59.870 -19.653  0.00  0.00    +0.000 A 
BRANCH  36  37
ATOM     37  O   UNL     1      17.280  59.979 -22.078  0.00  0.00    +0.000 OA
ATOM     38  C   UNL     1      16.007  60.543 -22.384  0.00  0.00    +0.000 C 
ENDBRANCH  36  37
ENDBRANCH  30  31
ENDBRANCH  27  29
ENDBRANCH  24  26
ENDBRANCH  23  24
TORSDOF 13
ENDMDL
MODEL 6
REMARK VINA RESULT:      -7.3      3.453      6.282
REMARK  Name = 
REMARK  13 active torsions:
REMARK  status: ('A' for Active; 'I' for Inactive)
REMARK    1  A    between atoms: O_2  and  C_3
REMARK    2  A    between atoms: C_5  and  C_6
REMARK    3  A    between atoms: C_7  and  C_8
REMARK    4  A    between atoms: C_8  and  C_10
REMARK    5  A    between atoms: C_13  and  C_14
REMARK    6  A    between atoms: C_19  and  O_20
REMARK    7  A    between atoms: C_23  and  C_24
REMARK    8  A    between atoms: C_24  and  C_26
REMARK    9  A    between atoms: C_27  and  C_29
REMARK   10  A    between atoms: C_30  and  C_31
REMARK   11  A    between atoms: C_36  and  O_37
REMARK   12  A    between atoms: C_41  and  C_42
REMARK   13  A    between atoms: C_47  and  O_48
REMARK                            x       y       z     vdW  Elec       q    Type
REMARK                         _______ _______ _______ _____ _____    ______ ____
ROOT
ATOM     10  C   UNL     1       4.311  60.941   4.386  0.00  0.00    +0.000 C 
ATOM     11  C   UNL     1       4.391  60.635   5.681  0.00  0.00    +0.000 C 
ATOM     12  O   UNL     1       3.431  59.945   6.433  0.00  0.00    +0.000 OA
ATOM     13  C   UNL     1       4.325  59.060   7.307  0.00  0.00    +0.000 C 
ATOM     23  C   UNL     1       5.221  60.399   7.902  0.00  0.00    +0.000 C 
ATOM     40  C   UNL     1       5.645  60.725   6.397  0.00  0.00    +0.000 C 
ATOM     41  C   UNL     1       6.896  60.550   5.996  0.00  0.00    +0.000 C 
ENDROOT
BRANCH  13  14
ATOM     14  C   UNL     1       3.319  59.068   8.562  0.00  0.00    +0.000 A 
ATOM     15  C   UNL     1       2.017  58.709   8.245  0.00  0.00    +0.000 A 
ATOM     16  C   UNL     1       1.296  57.797   9.006  0.00  0.00    +0.000 A 
ATOM     17  C   UNL     1       1.956  56.985   9.917  0.00  0.00    +0.000 A 
ATOM     18  O   UNL     1       1.640  55.627  10.043  0.00  0.00    +0.000 OA
ATOM     19  C   UNL     1       3.132  57.517  10.434  0.00  0.00    +0.000 A 
ATOM     22  C   UNL     1       3.877  58.346   9.612  0.00  0.00    +0.000 A 
BRANCH  19  20
ATOM     20  O   UNL     1       3.763  56.707  11.387  0.00  0.00    +0.000 OA
ATOM     21  C   UNL     1       4.940  56.044  10.928  0.00  0.00    +0.000 C 
ENDBRANCH  19  20
ENDBRANCH  13  14
BRANCH  41  42
ATOM     42  C   UNL     1       7.770  59.506   6.563  0.00  0.00    +0.000 A 
ATOM     43  C   UNL     1       8.830  59.996   7.321  0.00  0.00    +0.000 A 
ATOM     44  C   UNL     1      10.082  59.394   7.286  0.00  0.00    +0.000 A 
ATOM     45  C   UNL     1      10.350  58.376   6.380  0.00  0.00    +0.000 A 
ATOM     46  O   UNL     1      11.640  57.864   6.223  0.00  0.00    +0.000 OA
ATOM     47  C   UNL     1       9.240  57.669   5.934  0.00  0.00    +0.000 A 
ATOM     50  C   UNL     1       8.009  58.315   5.931  0.00  0.00    +0.000 A 
BRANCH  47  48
ATOM     48  O   UNL     1       9.461  56.812   4.849  0.00  0.00    +0.000 OA
ATOM     49  C   UNL     1       8.851  56.961   3.596  0.00  0.00    +0.000 C 
ENDBRANCH  47  48
ENDBRANCH  41  42
BRANCH  10   8
ATOM      8  C   UNL     1       3.262  60.376   3.525  0.00  0.00    +0.000 C 
ATOM      9  O   UNL     1       3.631  59.542   2.655  0.00  0.00    +0.000 OA
BRANCH   8   7
ATOM      6  C   UNL     1       1.480  62.014   4.088  0.00  0.00    +0.000 C 
ATOM      7  C   UNL     1       2.136  61.234   3.360  0.00  0.00    +0.000 C 
BRANCH   6   5
ATOM      3  C   UNL     1      -1.398  63.303   5.871  0.00  0.00    +0.000 A 
ATOM      4  C   UNL     1      -0.700  62.802   4.798  0.00  0.00    +0.000 A 
ATOM      5  C   UNL     1       0.318  61.862   4.923  0.00  0.00    +0.000 A 
ATOM     51  C   UNL     1       0.300  61.138   6.109  0.00  0.00    +0.000 A 
ATOM     52  C   UNL     1      -0.574  61.468   7.137  0.00  0.00    +0.000 A 
ATOM     53  C   UNL     1      -1.288  62.657   7.092  0.00  0.00    +0.000 A 
ATOM     54  O   UNL     1      -1.810  63.172   8.257  0.00  0.00    +0.000 OA
BRANCH   3   2
ATOM      1  C   UNL     1      -2.754  64.924   5.384  0.00  0.00    +0.000 C 
ATOM      2  O   UNL     1      -2.065  64.517   5.871  0.00  0.00    +0.000 OA
ENDBRANCH   3   2
ENDBRANCH   6   5
ENDBRANCH   8   7
ENDBRANCH  10   8
BRANCH  23  24
ATOM     24  C   UNL     1       4.023  61.456   7.952  0.00  0.00    +0.000 C 
ATOM     25  O   UNL     1       4.260  62.604   7.467  0.00  0.00    +0.000 OA
BRANCH  24  26
ATOM     26  C   UNL     1       3.317  61.577   9.238  0.00  0.00    +0.000 C 
ATOM     27  C   UNL     1       2.155  62.227   9.324  0.00  0.00    +0.000 C 
ATOM     28  O   UNL     1       2.145  63.423   8.597  0.00  0.00    +0.000 OA
BRANCH  27  29
ATOM     29  C   UNL     1       1.551  62.284  10.657  0.00  0.00    +0.000 C 
ATOM     30  C   UNL     1       0.543  61.538  11.043  0.00  0.00    +0.000 C 
BRANCH  30  31
ATOM     31  C   UNL     1       0.505  60.769  12.278  0.00  0.00    +0.000 A 
ATOM     32  C   UNL     1       1.650  60.712  13.063  0.00  0.00    +0.000 A 
ATOM     33  C   UNL     1       1.946  59.593  13.823  0.00  0.00    +0.000 A 
ATOM     34  C   UNL     1       1.026  58.570  13.942  0.00  0.00    +0.000 A 
ATOM     35  O   UNL     1       1.420  57.265  14.240  0.00  0.00    +0.000 OA
ATOM     36  C   UNL     1      -0.239  58.781  13.420  0.00  0.00    +0.000 A 
ATOM     39  C   UNL     1      -0.477  59.852  12.581  0.00  0.00    +0.000 A 
BRANCH  36  37
ATOM     37  O   UNL     1      -1.215  57.868  13.789  0.00  0.00    +0.000 OA
ATOM     38  C   UNL     1      -2.561  58.337  13.837  0.00  0.00    +0.000 C 
ENDBRANCH  36  37
ENDBRANCH  30  31
ENDBRANCH  27  29
ENDBRANCH  24  26
ENDBRANCH  23  24
TORSDOF 13
ENDMDL
MODEL 7
REMARK VINA RESULT:      -7.3     15.762     20.174
REMARK  Name = 
REMARK  13 active torsions:
REMARK  status: ('A' for Active; 'I' for Inactive)
REMARK    1  A    between atoms: O_2  and  C_3
REMARK    2  A    between atoms: C_5  and  C_6
REMARK    3  A    between atoms: C_7  and  C_8
REMARK    4  A    between atoms: C_8  and  C_10
REMARK    5  A    between atoms: C_13  and  C_14
REMARK    6  A    between atoms: C_19  and  O_20
REMARK    7  A    between atoms: C_23  and  C_24
REMARK    8  A    between atoms: C_24  and  C_26
REMARK    9  A    between atoms: C_27  and  C_29
REMARK   10  A    between atoms: C_30  and  C_31
REMARK   11  A    between atoms: C_36  and  O_37
REMARK   12  A    between atoms: C_41  and  C_42
REMARK   13  A    between atoms: C_47  and  O_48
REMARK                            x       y       z     vdW  Elec       q    Type
REMARK                         _______ _______ _______ _____ _____    ______ ____
ROOT
ATOM     10  C   UNL     1      18.813  61.273  16.252  0.00  0.00    +0.000 C 
ATOM     11  C   UNL     1      19.508  62.222  15.623  0.00  0.00    +0.000 C 
ATOM     12  O   UNL     1      19.066  63.518  15.327  0.00  0.00    +0.000 OA
ATOM     13  C   UNL     1      20.335  64.331  15.609  0.00  0.00    +0.000 C 
ATOM     23  C   UNL     1      21.287  63.380  14.542  0.00  0.00    +0.000 C 
ATOM     40  C   UNL     1      20.939  62.106  15.439  0.00  0.00    +0.000 C 
ATOM     41  C   UNL     1      21.872  61.527  16.180  0.00  0.00    +0.000 C 
ENDROOT
BRANCH  13  14
ATOM     14  C   UNL     1      20.025  65.437  14.484  0.00  0.00    +0.000 A 
ATOM     15  C   UNL     1      18.760  65.998  14.574  0.00  0.00    +0.000 A 
ATOM     16  C   UNL     1      18.551  67.369  14.495  0.00  0.00    +0.000 A 
ATOM     17  C   UNL     1      19.623  68.239  14.635  0.00  0.00    +0.000 A 
ATOM     18  O   UNL     1      19.516  69.406  15.399  0.00  0.00    +0.000 OA
ATOM     19  C   UNL     1      20.855  67.719  14.256  0.00  0.00    +0.000 A 
ATOM     22  C   UNL     1      21.064  66.362  14.442  0.00  0.00    +0.000 A 
BRANCH  19  20
ATOM     20  O   UNL     1      21.921  68.622  14.359  0.00  0.00    +0.000 OA
ATOM     21  C   UNL     1      22.263  69.289  13.145  0.00  0.00    +0.000 C 
ENDBRANCH  19  20
ENDBRANCH  13  14
BRANCH  41  42
ATOM     42  C   UNL     1      22.994  62.281  16.770  0.00  0.00    +0.000 A 
ATOM     43  C   UNL     1      24.213  61.608  16.744  0.00  0.00    +0.000 A 
ATOM     44  C   UNL     1      25.112  61.703  17.800  0.00  0.00    +0.000 A 
ATOM     45  C   UNL     1      24.755  62.354  18.974  0.00  0.00    +0.000 A 
ATOM     46  O   UNL     1      25.583  62.328  20.099  0.00  0.00    +0.000 OA
ATOM     47  C   UNL     1      23.751  63.305  18.846  0.00  0.00    +0.000 A 
ATOM     50  C   UNL     1      22.835  63.155  17.812  0.00  0.00    +0.000 A 
BRANCH  47  48
ATOM     48  O   UNL     1      23.216  63.790  20.045  0.00  0.00    +0.000 OA
ATOM     49  C   UNL     1      23.143  65.150  20.377  0.00  0.00    +0.000 C 
ENDBRANCH  47  48
ENDBRANCH  41  42
BRANCH  10   8
ATOM      8  C   UNL     1      17.537  61.569  16.918  0.00  0.00    +0.000 C 
ATOM      9  O   UNL     1      16.614  62.033  16.196  0.00  0.00    +0.000 OA
BRANCH   8   7
ATOM      6  C   UNL     1      18.622  62.114  19.086  0.00  0.00    +0.000 C 
ATOM      7  C   UNL     1      17.674  61.873  18.303  0.00  0.00    +0.000 C 
BRANCH   6   5
ATOM      3  C   UNL     1      20.125  61.263  22.270  0.00  0.00    +0.000 A 
ATOM      4  C   UNL     1      19.159  61.266  21.293  0.00  0.00    +0.000 A 
ATOM      5  C   UNL     1      19.451  61.298  19.933  0.00  0.00    +0.000 A 
ATOM     51  C   UNL     1      20.738  60.889  19.604  0.00  0.00    +0.000 A 
ATOM     52  C   UNL     1      21.684  60.638  20.590  0.00  0.00    +0.000 A 
ATOM     53  C   UNL     1      21.435  61.002  21.905  0.00  0.00    +0.000 A 
ATOM     54  O   UNL     1      22.493  61.141  22.776  0.00  0.00    +0.000 OA
BRANCH   3   2
ATOM      1  C   UNL     1      19.313  62.232  24.034  0.00  0.00    +0.000 C 
ATOM      2  O   UNL     1      19.917  61.682  23.575  0.00  0.00    +0.000 OA
ENDBRANCH   3   2
ENDBRANCH   6   5
ENDBRANCH   8   7
ENDBRANCH  10   8
BRANCH  23  24
ATOM     24  C   UNL     1      20.163  63.100  13.440  0.00  0.00    +0.000 C 
ATOM     25  O   UNL     1      20.033  61.898  13.057  0.00  0.00    +0.000 OA
BRANCH  24  26
ATOM     26  C   UNL     1      20.144  64.013  12.285  0.00  0.00    +0.000 C 
ATOM     27  C   UNL     1      20.954  63.819  11.244  0.00  0.00    +0.000 C 
ATOM     28  O   UNL     1      22.255  63.468  11.624  0.00  0.00    +0.000 OA
BRANCH  27  29
ATOM     29  C   UNL     1      20.846  64.796  10.158  0.00  0.00    +0.000 C 
ATOM     30  C   UNL     1      19.728  65.379   9.799  0.00  0.00    +0.000 C 
BRANCH  30  31
ATOM     31  C   UNL     1      19.564  66.813   9.608  0.00  0.00    +0.000 A 
ATOM     32  C   UNL     1      19.746  67.656  10.698  0.00  0.00    +0.000 A 
ATOM     33  C   UNL     1      19.036  68.838  10.820  0.00  0.00    +0.000 A 
ATOM     34  C   UNL     1      18.246  69.284   9.779  0.00  0.00    +0.000 A 
ATOM     35  O   UNL     1      17.162  70.137   9.998  0.00  0.00    +0.000 OA
ATOM     36  C   UNL     1      18.325  68.604   8.576  0.00  0.00    +0.000 A 
ATOM     39  C   UNL     1      18.953  67.376   8.509  0.00  0.00    +0.000 A 
BRANCH  36  37
ATOM     37  O   UNL     1      17.746  69.226   7.480  0.00  0.00    +0.000 OA
ATOM     38  C   UNL     1      18.620  69.885   6.567  0.00  0.00    +0.000 C 
ENDBRANCH  36  37
ENDBRANCH  30  31
ENDBRANCH  27  29
ENDBRANCH  24  26
ENDBRANCH  23  24
TORSDOF 13
ENDMDL
MODEL 8
REMARK VINA RESULT:      -7.3      3.616      8.497
REMARK  Name = 
REMARK  13 active torsions:
REMARK  status: ('A' for Active; 'I' for Inactive)
REMARK    1  A    between atoms: O_2  and  C_3
REMARK    2  A    between atoms: C_5  and  C_6
REMARK    3  A    between atoms: C_7  and  C_8
REMARK    4  A    between atoms: C_8  and  C_10
REMARK    5  A    between atoms: C_13  and  C_14
REMARK    6  A    between atoms: C_19  and  O_20
REMARK    7  A    between atoms: C_23  and  C_24
REMARK    8  A    between atoms: C_24  and  C_26
REMARK    9  A    between atoms: C_27  and  C_29
REMARK   10  A    between atoms: C_30  and  C_31
REMARK   11  A    between atoms: C_36  and  O_37
REMARK   12  A    between atoms: C_41  and  C_42
REMARK   13  A    between atoms: C_47  and  O_48
REMARK                            x       y       z     vdW  Elec       q    Type
REMARK                         _______ _______ _______ _____ _____    ______ ____
ROOT
ATOM     10  C   UNL     1       2.147  62.937   8.562  0.00  0.00    +0.000 C 
ATOM     11  C   UNL     1       2.598  61.841   7.950  0.00  0.00    +0.000 C 
ATOM     12  O   UNL     1       3.267  60.767   8.552  0.00  0.00    +0.000 OA
ATOM     13  C   UNL     1       2.645  59.581   7.807  0.00  0.00    +0.000 C 
ATOM     23  C   UNL     1       3.058  60.219   6.267  0.00  0.00    +0.000 C 
ATOM     40  C   UNL     1       2.169  61.500   6.610  0.00  0.00    +0.000 C 
ATOM     41  C   UNL     1       1.028  61.719   5.974  0.00  0.00    +0.000 C 
ENDROOT
BRANCH  13  14
ATOM     14  C   UNL     1       3.974  58.678   7.883  0.00  0.00    +0.000 A 
ATOM     15  C   UNL     1       4.586  58.675   9.129  0.00  0.00    +0.000 A 
ATOM     16  C   UNL     1       5.011  57.502   9.740  0.00  0.00    +0.000 A 
ATOM     17  C   UNL     1       4.562  56.276   9.269  0.00  0.00    +0.000 A 
ATOM     18  O   UNL     1       4.170  55.260  10.149  0.00  0.00    +0.000 OA
ATOM     19  C   UNL     1       4.224  56.253   7.921  0.00  0.00    +0.000 A 
ATOM     22  C   UNL     1       3.708  57.414   7.368  0.00  0.00    +0.000 A 
BRANCH  19  20
ATOM     20  O   UNL     1       3.815  54.999   7.450  0.00  0.00    +0.000 OA
ATOM     21  C   UNL     1       2.413  54.871   7.217  0.00  0.00    +0.000 C 
ENDBRANCH  19  20
ENDBRANCH  13  14
BRANCH  41  42
ATOM     42  C   UNL     1       0.178  60.623   5.474  0.00  0.00    +0.000 A 
ATOM     43  C   UNL     1      -0.136  60.713   4.120  0.00  0.00    +0.000 A 
ATOM     44  C   UNL     1      -1.390  60.349   3.643  0.00  0.00    +0.000 A 
ATOM     45  C   UNL     1      -2.413  60.025   4.526  0.00  0.00    +0.000 A 
ATOM     46  O   UNL     1      -3.717  59.806   4.077  0.00  0.00    +0.000 OA
ATOM     47  C   UNL     1      -2.001  59.578   5.776  0.00  0.00    +0.000 A 
ATOM     50  C   UNL     1      -0.765  60.001   6.248  0.00  0.00    +0.000 A 
BRANCH  47  48
ATOM     48  O   UNL     1      -3.005  59.481   6.747  0.00  0.00    +0.000 OA
ATOM     49  C   UNL     1      -3.595  60.585   7.376  0.00  0.00    +0.000 C 
ENDBRANCH  47  48
ENDBRANCH  41  42
BRANCH  10   8
ATOM      8  C   UNL     1       2.111  63.038  10.027  0.00  0.00    +0.000 C 
ATOM      9  O   UNL     1       3.218  63.180  10.613  0.00  0.00    +0.000 OA
BRANCH   8   7
ATOM      6  C   UNL     1       0.782  61.707  11.651  0.00  0.00    +0.000 C 
ATOM      7  C   UNL     1       0.992  62.383  10.617  0.00  0.00    +0.000 C 
BRANCH   6   5
ATOM      3  C   UNL     1       1.904  58.873  13.608  0.00  0.00    +0.000 A 
ATOM      4  C   UNL     1       1.093  59.929  13.269  0.00  0.00    +0.000 A 
ATOM      5  C   UNL     1       0.836  60.301  11.954  0.00  0.00    +0.000 A 
ATOM     51  C   UNL     1       1.075  59.310  11.010  0.00  0.00    +0.000 A 
ATOM     52  C   UNL     1       1.682  58.112  11.367  0.00  0.00    +0.000 A 
ATOM     53  C   UNL     1       2.261  57.969  12.620  0.00  0.00    +0.000 A 
ATOM     54  O   UNL     1       3.198  56.980  12.819  0.00  0.00    +0.000 OA
BRANCH   3   2
ATOM      1  C   UNL     1       2.645  59.243  15.613  0.00  0.00    +0.000 C 
ATOM      2  O   UNL     1       2.544  58.739  14.829  0.00  0.00    +0.000 OA
ENDBRANCH   3   2
ENDBRANCH   6   5
ENDBRANCH   8   7
ENDBRANCH  10   8
BRANCH  23  24
ATOM     24  C   UNL     1       4.451  60.888   6.675  0.00  0.00    +0.000 C 
ATOM     25  O   UNL     1       4.478  62.155   6.726  0.00  0.00    +0.000 OA
BRANCH  24  26
ATOM     26  C   UNL     1       5.645  60.376   5.983  0.00  0.00    +0.000 C 
ATOM     27  C   UNL     1       6.689  59.908   6.670  0.00  0.00    +0.000 C 
ATOM     28  O   UNL     1       7.013  60.703   7.775  0.00  0.00    +0.000 OA
BRANCH  27  29
ATOM     29  C   UNL     1       7.819  59.432   5.870  0.00  0.00    +0.000 C 
ATOM     30  C   UNL     1       9.068  59.772   6.082  0.00  0.00    +0.000 C 
BRANCH  30  31
ATOM     31  C   UNL     1      10.178  58.836   6.176  0.00  0.00    +0.000 A 
ATOM     32  C   UNL     1      10.573  58.152   5.033  0.00  0.00    +0.000 A 
ATOM     33  C   UNL     1      11.099  56.873   5.104  0.00  0.00    +0.000 A 
ATOM     34  C   UNL     1      11.391  56.310   6.330  0.00  0.00    +0.000 A 
ATOM     35  O   UNL     1      11.431  54.926   6.506  0.00  0.00    +0.000 OA
ATOM     36  C   UNL     1      11.297  57.121   7.448  0.00  0.00    +0.000 A 
ATOM     39  C   UNL     1      10.674  58.351   7.367  0.00  0.00    +0.000 A 
BRANCH  36  37
ATOM     37  O   UNL     1      11.854  56.623   8.616  0.00  0.00    +0.000 OA
ATOM     38  C   UNL     1      12.822  57.437   9.275  0.00  0.00    +0.000 C 
ENDBRANCH  36  37
ENDBRANCH  30  31
ENDBRANCH  27  29
ENDBRANCH  24  26
ENDBRANCH  23  24
TORSDOF 13
ENDMDL
MODEL 9
REMARK VINA RESULT:      -7.3     14.037     19.448
REMARK  Name = 
REMARK  13 active torsions:
REMARK  status: ('A' for Active; 'I' for Inactive)
REMARK    1  A    between atoms: O_2  and  C_3
REMARK    2  A    between atoms: C_5  and  C_6
REMARK    3  A    between atoms: C_7  and  C_8
REMARK    4  A    between atoms: C_8  and  C_10
REMARK    5  A    between atoms: C_13  and  C_14
REMARK    6  A    between atoms: C_19  and  O_20
REMARK    7  A    between atoms: C_23  and  C_24
REMARK    8  A    between atoms: C_24  and  C_26
REMARK    9  A    between atoms: C_27  and  C_29
REMARK   10  A    between atoms: C_30  and  C_31
REMARK   11  A    between atoms: C_36  and  O_37
REMARK   12  A    between atoms: C_41  and  C_42
REMARK   13  A    between atoms: C_47  and  O_48
REMARK                            x       y       z     vdW  Elec       q    Type
REMARK                         _______ _______ _______ _____ _____    ______ ____
ROOT
ATOM     10  C   UNL     1      22.722  64.114  15.264  0.00  0.00    +0.000 C 
ATOM     11  C   UNL     1      22.264  65.111  14.505  0.00  0.00    +0.000 C 
ATOM     12  O   UNL     1      21.006  65.180  13.893  0.00  0.00    +0.000 OA
ATOM     13  C   UNL     1      20.662  66.659  14.098  0.00  0.00    +0.000 C 
ATOM     23  C   UNL     1      22.116  67.191  13.353  0.00  0.00    +0.000 C 
ATOM     40  C   UNL     1      22.928  66.397  14.475  0.00  0.00    +0.000 C 
ATOM     41  C   UNL     1      23.610  67.051  15.403  0.00  0.00    +0.000 C 
ENDROOT
BRANCH  13  14
ATOM     14  C   UNL     1      19.819  66.780  12.733  0.00  0.00    +0.000 A 
ATOM     15  C   UNL     1      18.806  65.840  12.609  0.00  0.00    +0.000 A 
ATOM     16  C   UNL     1      17.522  66.186  12.209  0.00  0.00    +0.000 A 
ATOM     17  C   UNL     1      17.131  67.517  12.221  0.00  0.00    +0.000 A 
ATOM     18  O   UNL     1      15.869  67.898  12.694  0.00  0.00    +0.000 OA
ATOM     19  C   UNL     1      18.162  68.434  12.054  0.00  0.00    +0.000 A 
ATOM     22  C   UNL     1      19.409  68.097  12.555  0.00  0.00    +0.000 A 
BRANCH  19  20
ATOM     20  O   UNL     1      17.746  69.771  12.023  0.00  0.00    +0.000 OA
ATOM     21  C   UNL     1      18.004  70.453  10.796  0.00  0.00    +0.000 C 
ENDBRANCH  19  20
ENDBRANCH  13  14
BRANCH  41  42
ATOM     42  C   UNL     1      23.193  68.372  15.908  0.00  0.00    +0.000 A 
ATOM     43  C   UNL     1      21.985  68.367  16.599  0.00  0.00    +0.000 A 
ATOM     44  C   UNL     1      21.080  69.417  16.481  0.00  0.00    +0.000 A 
ATOM     45  C   UNL     1      21.294  70.430  15.555  0.00  0.00    +0.000 A 
ATOM     46  O   UNL     1      20.326  71.407  15.313  0.00  0.00    +0.000 OA
ATOM     47  C   UNL     1      22.617  70.623  15.178  0.00  0.00    +0.000 A 
ATOM     50  C   UNL     1      23.486  69.542  15.258  0.00  0.00    +0.000 A 
BRANCH  47  48
ATOM     48  O   UNL     1      22.819  71.465  14.078  0.00  0.00    +0.000 OA
ATOM     49  C   UNL     1      23.852  71.301  13.145  0.00  0.00    +0.000 C 
ENDBRANCH  47  48
ENDBRANCH  41  42
BRANCH  10   8
ATOM      8  C   UNL     1      21.838  63.039  15.736  0.00  0.00    +0.000 C 
ATOM      9  O   UNL     1      21.297  62.322  14.852  0.00  0.00    +0.000 OA
BRANCH   8   7
ATOM      6  C   UNL     1      20.540  62.670  17.822  0.00  0.00    +0.000 C 
ATOM      7  C   UNL     1      21.240  63.306  17.001  0.00  0.00    +0.000 C 
BRANCH   6   5
ATOM      3  C   UNL     1      17.651  61.380  19.586  0.00  0.00    +0.000 A 
ATOM      4  C   UNL     1      18.660  62.267  19.299  0.00  0.00    +0.000 A 
ATOM      5  C   UNL     1      19.122  62.504  18.009  0.00  0.00    +0.000 A 
ATOM     51  C   UNL     1      18.240  62.142  16.998  0.00  0.00    +0.000 A 
ATOM     52  C   UNL     1      17.072  61.446  17.282  0.00  0.00    +0.000 A 
ATOM     53  C   UNL     1      16.870  60.906  18.545  0.00  0.00    +0.000 A 
ATOM     54  O   UNL     1      15.950  59.894  18.703  0.00  0.00    +0.000 OA
BRANCH   3   2
ATOM      1  C   UNL     1      17.535  61.023  21.723  0.00  0.00    +0.000 C 
ATOM      2  O   UNL     1      17.467  60.779  20.821  0.00  0.00    +0.000 OA
ENDBRANCH   3   2
ENDBRANCH   6   5
ENDBRANCH   8   7
ENDBRANCH  10   8
BRANCH  23  24
ATOM     24  C   UNL     1      22.225  66.042  12.247  0.00  0.00    +0.000 C 
ATOM     25  O   UNL     1      23.394  65.637  11.964  0.00  0.00    +0.000 OA
BRANCH  24  26
ATOM     26  C   UNL     1      21.441  66.246  11.018  0.00  0.00    +0.000 C 
ATOM     27  C   UNL     1      21.995  66.789   9.933  0.00  0.00    +0.000 C 
ATOM     28  O   UNL     1      22.814  67.884  10.230  0.00  0.00    +0.000 OA
BRANCH  27  29
ATOM     29  C   UNL     1      21.112  66.946   8.775  0.00  0.00    +0.000 C 
ATOM     30  C   UNL     1      20.486  65.956   8.185  0.00  0.00    +0.000 C 
BRANCH  30  31
ATOM     31  C   UNL     1      19.067  65.947   7.861  0.00  0.00    +0.000 A 
ATOM     32  C   UNL     1      18.683  65.678   6.553  0.00  0.00    +0.000 A 
ATOM     33  C   UNL     1      17.545  66.245   6.006  0.00  0.00    +0.000 A 
ATOM     34  C   UNL     1      16.677  66.967   6.801  0.00  0.00    +0.000 A 
ATOM     35  O   UNL     1      15.837  67.944   6.265  0.00  0.00    +0.000 OA
ATOM     36  C   UNL     1      16.899  66.956   8.168  0.00  0.00    +0.000 A 
ATOM     39  C   UNL     1      18.091  66.477   8.676  0.00  0.00    +0.000 A 
BRANCH  36  37
ATOM     37  O   UNL     1      15.873  67.447   8.960  0.00  0.00    +0.000 OA
ATOM     38  C   UNL     1      14.879  66.519   9.388  0.00  0.00    +0.000 C 
ENDBRANCH  36  37
ENDBRANCH  30  31
ENDBRANCH  27  29
ENDBRANCH  24  26
ENDBRANCH  23  24
TORSDOF 13
ENDMDL
MODEL 10
REMARK VINA RESULT:      -7.2     20.691     25.815
REMARK  Name = 
REMARK  13 active torsions:
REMARK  status: ('A' for Active; 'I' for Inactive)
REMARK    1  A    between atoms: O_2  and  C_3
REMARK    2  A    between atoms: C_5  and  C_6
REMARK    3  A    between atoms: C_7  and  C_8
REMARK    4  A    between atoms: C_8  and  C_10
REMARK    5  A    between atoms: C_13  and  C_14
REMARK    6  A    between atoms: C_19  and  O_20
REMARK    7  A    between atoms: C_23  and  C_24
REMARK    8  A    between atoms: C_24  and  C_26
REMARK    9  A    between atoms: C_27  and  C_29
REMARK   10  A    between atoms: C_30  and  C_31
REMARK   11  A    between atoms: C_36  and  O_37
REMARK   12  A    between atoms: C_41  and  C_42
REMARK   13  A    between atoms: C_47  and  O_48
REMARK                            x       y       z     vdW  Elec       q    Type
REMARK                         _______ _______ _______ _____ _____    ______ ____
ROOT
ATOM     10  C   UNL     1      16.979  67.130 -12.669  0.00  0.00    +0.000 C 
ATOM     11  C   UNL     1      15.917  66.327 -12.752  0.00  0.00    +0.000 C 
ATOM     12  O   UNL     1      15.427  65.489 -11.742  0.00  0.00    +0.000 OA
ATOM     13  C   UNL     1      13.916  65.668 -11.922  0.00  0.00    +0.000 C 
ATOM     23  C   UNL     1      13.972  65.230 -13.582  0.00  0.00    +0.000 C 
ATOM     40  C   UNL     1      14.957  66.463 -13.827  0.00  0.00    +0.000 C 
ATOM     41  C   UNL     1      14.553  67.523 -14.510  0.00  0.00    +0.000 C 
ENDROOT
BRANCH  13  14
ATOM     14  C   UNL     1      13.557  64.172 -11.452  0.00  0.00    +0.000 A 
ATOM     15  C   UNL     1      14.230  63.761 -10.311  0.00  0.00    +0.000 A 
ATOM     16  C   UNL     1      13.581  63.130  -9.257  0.00  0.00    +0.000 A 
ATOM     17  C   UNL     1      12.196  63.171  -9.177  0.00  0.00    +0.000 A 
ATOM     18  O   UNL     1      11.546  63.399  -7.958  0.00  0.00    +0.000 OA
ATOM     19  C   UNL     1      11.540  63.300 -10.395  0.00  0.00    +0.000 A 
ATOM     22  C   UNL     1      12.176  64.021 -11.393  0.00  0.00    +0.000 A 
BRANCH  19  20
ATOM     20  O   UNL     1      10.143  63.293 -10.303  0.00  0.00    +0.000 OA
ATOM     21  C   UNL     1       9.507  64.502 -10.718  0.00  0.00    +0.000 C 
ENDBRANCH  19  20
ENDBRANCH  13  14
BRANCH  41  42
ATOM     42  C   UNL     1      13.151  67.978 -14.510  0.00  0.00    +0.000 A 
ATOM     43  C   UNL     1      12.566  68.037 -15.772  0.00  0.00    +0.000 A 
ATOM     44  C   UNL     1      11.682  69.054 -16.113  0.00  0.00    +0.000 A 
ATOM     45  C   UNL     1      11.470  70.122 -15.250  0.00  0.00    +0.000 A 
ATOM     46  O   UNL     1      10.707  71.226 -15.636  0.00  0.00    +0.000 OA
ATOM     47  C   UNL     1      11.734  69.867 -13.910  0.00  0.00    +0.000 A 
ATOM     50  C   UNL     1      12.662  68.880 -13.602  0.00  0.00    +0.000 A 
BRANCH  47  48
ATOM     48  O   UNL     1      11.760  70.987 -13.072  0.00  0.00    +0.000 OA
ATOM     49  C   UNL     1      10.693  71.377 -12.252  0.00  0.00    +0.000 C 
ENDBRANCH  47  48
ENDBRANCH  41  42
BRANCH  10   8
ATOM      8  C   UNL     1      17.645  67.392 -11.386  0.00  0.00    +0.000 C 
ATOM      9  O   UNL     1      17.673  68.591 -10.996  0.00  0.00    +0.000 OA
BRANCH   8   7
ATOM      6  C   UNL     1      18.747  65.441 -10.314  0.00  0.00    +0.000 C 
ATOM      7  C   UNL     1      18.655  66.440 -11.062  0.00  0.00    +0.000 C 
BRANCH   6   5
ATOM      3  C   UNL     1      18.378  65.905  -6.740  0.00  0.00    +0.000 A 
ATOM      4  C   UNL     1      18.183  65.303  -7.960  0.00  0.00    +0.000 A 
ATOM      5  C   UNL     1      19.160  65.249  -8.948  0.00  0.00    +0.000 A 
ATOM     51  C   UNL     1      20.460  65.437  -8.493  0.00  0.00    +0.000 A 
ATOM     52  C   UNL     1      20.712  65.815  -7.180  0.00  0.00    +0.000 A 
ATOM     53  C   UNL     1      19.671  66.227  -6.360  0.00  0.00    +0.000 A 
ATOM     54  O   UNL     1      19.954  66.977  -5.241  0.00  0.00    +0.000 OA
BRANCH   3   2
ATOM      1  C   UNL     1      16.422  66.386  -5.935  0.00  0.00    +0.000 C 
ATOM      2  O   UNL     1      17.359  66.382  -5.931  0.00  0.00    +0.000 OA
ENDBRANCH   3   2
ENDBRANCH   6   5
ENDBRANCH   8   7
ENDBRANCH  10   8
BRANCH  23  24
ATOM     24  C   UNL     1      15.128  64.131 -13.477  0.00  0.00    +0.000 C 
ATOM     25  O   UNL     1      16.289  64.495 -13.838  0.00  0.00    +0.000 OA
BRANCH  24  26
ATOM     26  C   UNL     1      14.812  62.802 -14.024  0.00  0.00    +0.000 C 
ATOM     27  C   UNL     1      14.778  61.727 -13.235  0.00  0.00    +0.000 C 
ATOM     28  O   UNL     1      15.837  61.689 -12.320  0.00  0.00    +0.000 OA
BRANCH  27  29
ATOM     29  C   UNL     1      14.457  60.459 -13.895  0.00  0.00    +0.000 C 
ATOM     30  C   UNL     1      13.823  60.363 -15.039  0.00  0.00    +0.000 C 
BRANCH  30  31
ATOM     31  C   UNL     1      14.264  59.556 -16.167  0.00  0.00    +0.000 A 
ATOM     32  C   UNL     1      13.467  58.495 -16.579  0.00  0.00    +0.000 A 
ATOM     33  C   UNL     1      14.020  57.351 -17.130  0.00  0.00    +0.000 A 
ATOM     34  C   UNL     1      15.367  57.304 -17.428  0.00  0.00    +0.000 A 
ATOM     35  O   UNL     1      16.059  56.094 -17.494  0.00  0.00    +0.000 OA
ATOM     36  C   UNL     1      16.090  58.479 -17.314  0.00  0.00    +0.000 A 
ATOM     39  C   UNL     1      15.547  59.573 -16.667  0.00  0.00    +0.000 A 
BRANCH  36  37
ATOM     37  O   UNL     1      17.358  58.476 -17.876  0.00  0.00    +0.000 OA
ATOM     38  C   UNL     1      17.445  58.673 -19.285  0.00  0.00    +0.000 C 
ENDBRANCH  36  37
ENDBRANCH  30  31
ENDBRANCH  27  29
ENDBRANCH  24  26
ENDBRANCH  23  24
TORSDOF 13
ENDMDL
