MODEL 1
REMARK VINA RESULT:      -6.7      0.000      0.000
REMARK  Name = 
REMARK  14 active torsions:
REMARK  status: ('A' for Active; 'I' for Inactive)
REMARK    1  A    between atoms: O_2  and  C_3
REMARK    2  A    between atoms: C_5  and  C_6
REMARK    3  A    between atoms: C_7  and  C_8
REMARK    4  A    between atoms: C_8  and  C_10
REMARK    5  A    between atoms: C_11  and  C_12
REMARK    6  A    between atoms: C_13  and  C_14
REMARK    7  A    between atoms: C_19  and  O_20
REMARK    8  A    between atoms: C_24  and  C_25
REMARK    9  A    between atoms: C_30  and  O_31
REMARK   10  A    between atoms: C_34  and  C_35
REMARK   11  A    between atoms: C_35  and  C_37
REMARK   12  A    between atoms: C_38  and  C_40
REMARK   13  A    between atoms: C_41  and  C_42
REMARK   14  A    between atoms: C_47  and  O_48
REMARK                            x       y       z     vdW  Elec       q    Type
REMARK                         _______ _______ _______ _____ _____    ______ ____
ROOT
ATOM     10  C   UNL     1       5.878  53.454  19.662  0.00  0.00    +0.000 C 
ATOM     11  C   UNL     1       5.584  54.500  20.441  0.00  0.00    +0.000 C 
ATOM     23  O   UNL     1       4.380  54.803  19.916  0.00  0.00    +0.000 OA
ATOM     24  C   UNL     1       3.490  53.535  20.035  0.00  0.00    +0.000 C 
ATOM     34  C   UNL     1       4.840  52.511  20.467  0.00  0.00    +0.000 C 
ENDROOT
BRANCH  24  25
ATOM     25  C   UNL     1       3.188  53.870  21.607  0.00  0.00    +0.000 A 
ATOM     26  C   UNL     1       2.421  52.963  22.264  0.00  0.00    +0.000 A 
ATOM     27  C   UNL     1       2.172  53.269  23.601  0.00  0.00    +0.000 A 
ATOM     28  C   UNL     1       2.579  54.476  24.161  0.00  0.00    +0.000 A 
ATOM     29  O   UNL     1       3.032  54.552  25.485  0.00  0.00    +0.000 OA
ATOM     30  C   UNL     1       2.859  55.490  23.248  0.00  0.00    +0.000 A 
ATOM     33  C   UNL     1       3.066  55.193  21.903  0.00  0.00    +0.000 A 
BRANCH  30  31
ATOM     31  O   UNL     1       2.905  56.778  23.742  0.00  0.00    +0.000 OA
ATOM     32  C   UNL     1       3.926  57.702  23.479  0.00  0.00    +0.000 C 
ENDBRANCH  30  31
ENDBRANCH  24  25
BRANCH  10   8
ATOM      8  C   UNL     1       7.202  52.856  19.504  0.00  0.00    +0.000 C 
ATOM      9  O   UNL     1       7.932  53.192  18.521  0.00  0.00    +0.000 OA
BRANCH   8   7
ATOM      6  C   UNL     1       7.855  51.276  21.266  0.00  0.00    +0.000 C 
ATOM      7  C   UNL     1       7.977  52.438  20.678  0.00  0.00    +0.000 C 
BRANCH   6   5
ATOM      3  C   UNL     1       8.343  51.050  24.908  0.00  0.00    +0.000 A 
ATOM      4  C   UNL     1       8.545  50.716  23.575  0.00  0.00    +0.000 A 
ATOM      5  C   UNL     1       7.555  51.106  22.694  0.00  0.00    +0.000 A 
ATOM     51  C   UNL     1       6.294  51.394  23.186  0.00  0.00    +0.000 A 
ATOM     52  C   UNL     1       6.138  51.883  24.467  0.00  0.00    +0.000 A 
ATOM     53  C   UNL     1       7.127  51.526  25.375  0.00  0.00    +0.000 A 
ATOM     54  O   UNL     1       6.871  51.505  26.744  0.00  0.00    +0.000 OA
BRANCH   3   2
ATOM      1  C   UNL     1      10.077  51.012  26.079  0.00  0.00    +0.000 C 
ATOM      2  O   UNL     1       9.445  51.136  25.761  0.00  0.00    +0.000 OA
ENDBRANCH   3   2
ENDBRANCH   6   5
ENDBRANCH   8   7
ENDBRANCH  10   8
BRANCH  11  12
ATOM     12  C   UNL     1       6.519  55.459  21.053  0.00  0.00    +0.000 C 
ATOM     13  C   UNL     1       6.746  55.503  22.331  0.00  0.00    +0.000 C 
BRANCH  13  14
ATOM     14  C   UNL     1       8.022  55.350  22.999  0.00  0.00    +0.000 A 
ATOM     15  C   UNL     1       9.122  55.904  22.355  0.00  0.00    +0.000 A 
ATOM     16  C   UNL     1      10.375  55.939  22.949  0.00  0.00    +0.000 A 
ATOM     17  C   UNL     1      10.560  55.339  24.182  0.00  0.00    +0.000 A 
ATOM     18  O   UNL     1      11.841  55.100  24.682  0.00  0.00    +0.000 OA
ATOM     19  C   UNL     1       9.440  54.873  24.865  0.00  0.00    +0.000 A 
ATOM     22  C   UNL     1       8.189  54.896  24.277  0.00  0.00    +0.000 A 
BRANCH  19  20
ATOM     20  O   UNL     1       9.604  54.471  26.192  0.00  0.00    +0.000 OA
ATOM     21  C   UNL     1       8.565  54.566  27.151  0.00  0.00    +0.000 C 
ENDBRANCH  19  20
ENDBRANCH  13  14
ENDBRANCH  11  12
BRANCH  34  35
ATOM     35  C   UNL     1       4.624  51.528  19.204  0.00  0.00    +0.000 C 
ATOM     36  O   UNL     1       4.030  51.985  18.228  0.00  0.00    +0.000 OA
BRANCH  35  37
ATOM     37  C   UNL     1       4.651  50.111  19.501  0.00  0.00    +0.000 C 
ATOM     38  C   UNL     1       5.501  49.248  19.000  0.00  0.00    +0.000 C 
ATOM     39  O   UNL     1       6.172  49.635  17.835  0.00  0.00    +0.000 OA
BRANCH  38  40
ATOM     40  C   UNL     1       5.961  48.084  19.772  0.00  0.00    +0.000 C 
ATOM     41  C   UNL     1       5.202  47.409  20.599  0.00  0.00    +0.000 C 
BRANCH  41  42
ATOM     42  C   UNL     1       5.542  47.049  21.956  0.00  0.00    +0.000 A 
ATOM     43  C   UNL     1       5.623  47.912  23.016  0.00  0.00    +0.000 A 
ATOM     44  C   UNL     1       6.295  47.534  24.164  0.00  0.00    +0.000 A 
ATOM     45  C   UNL     1       6.693  46.242  24.360  0.00  0.00    +0.000 A 
ATOM     46  O   UNL     1       7.568  45.837  25.361  0.00  0.00    +0.000 OA
ATOM     47  C   UNL     1       6.339  45.306  23.416  0.00  0.00    +0.000 A 
ATOM     50  C   UNL     1       5.831  45.719  22.216  0.00  0.00    +0.000 A 
BRANCH  47  48
ATOM     48  O   UNL     1       6.352  43.938  23.666  0.00  0.00    +0.000 OA
ATOM     49  C   UNL     1       5.190  43.189  23.894  0.00  0.00    +0.000 C 
ENDBRANCH  47  48
ENDBRANCH  41  42
ENDBRANCH  38  40
ENDBRANCH  35  37
ENDBRANCH  34  35
TORSDOF 14
ENDMDL
MODEL 2
REMARK VINA RESULT:      -6.6      1.487      2.245
REMARK  Name = 
REMARK  14 active torsions:
REMARK  status: ('A' for Active; 'I' for Inactive)
REMARK    1  A    between atoms: O_2  and  C_3
REMARK    2  A    between atoms: C_5  and  C_6
REMARK    3  A    between atoms: C_7  and  C_8
REMARK    4  A    between atoms: C_8  and  C_10
REMARK    5  A    between atoms: C_11  and  C_12
REMARK    6  A    between atoms: C_13  and  C_14
REMARK    7  A    between atoms: C_19  and  O_20
REMARK    8  A    between atoms: C_24  and  C_25
REMARK    9  A    between atoms: C_30  and  O_31
REMARK   10  A    between atoms: C_34  and  C_35
REMARK   11  A    between atoms: C_35  and  C_37
REMARK   12  A    between atoms: C_38  and  C_40
REMARK   13  A    between atoms: C_41  and  C_42
REMARK   14  A    between atoms: C_47  and  O_48
REMARK                            x       y       z     vdW  Elec       q    Type
REMARK                         _______ _______ _______ _____ _____    ______ ____
ROOT
ATOM     10  C   UNL     1       5.299  53.847  20.414  0.00  0.00    +0.000 C 
ATOM     11  C   UNL     1       5.258  54.813  21.337  0.00  0.00    +0.000 C 
ATOM     23  O   UNL     1       3.995  55.233  21.126  0.00  0.00    +0.000 OA
ATOM     24  C   UNL     1       3.061  54.006  21.318  0.00  0.00    +0.000 C 
ATOM     34  C   UNL     1       4.393  52.874  21.335  0.00  0.00    +0.000 C 
ENDROOT
BRANCH  24  25
ATOM     25  C   UNL     1       3.133  54.180  22.943  0.00  0.00    +0.000 A 
ATOM     26  C   UNL     1       2.576  53.176  23.666  0.00  0.00    +0.000 A 
ATOM     27  C   UNL     1       2.644  53.346  25.048  0.00  0.00    +0.000 A 
ATOM     28  C   UNL     1       3.134  54.517  25.616  0.00  0.00    +0.000 A 
ATOM     29  O   UNL     1       3.888  54.498  26.797  0.00  0.00    +0.000 OA
ATOM     30  C   UNL     1       3.154  55.624  24.770  0.00  0.00    +0.000 A 
ATOM     33  C   UNL     1       3.042  55.462  23.391  0.00  0.00    +0.000 A 
BRANCH  30  31
ATOM     31  O   UNL     1       3.275  56.862  25.368  0.00  0.00    +0.000 OA
ATOM     32  C   UNL     1       2.541  57.289  26.483  0.00  0.00    +0.000 C 
ENDBRANCH  30  31
ENDBRANCH  24  25
BRANCH  10   8
ATOM      8  C   UNL     1       6.509  53.204  19.906  0.00  0.00    +0.000 C 
ATOM      9  O   UNL     1       6.986  53.556  18.784  0.00  0.00    +0.000 OA
BRANCH   8   7
ATOM      6  C   UNL     1       7.644  51.448  21.194  0.00  0.00    +0.000 C 
ATOM      7  C   UNL     1       7.530  52.700  20.832  0.00  0.00    +0.000 C 
BRANCH   6   5
ATOM      3  C   UNL     1       6.732  49.565  24.223  0.00  0.00    +0.000 A 
ATOM      4  C   UNL     1       6.517  50.384  23.123  0.00  0.00    +0.000 A 
ATOM      5  C   UNL     1       7.637  50.995  22.591  0.00  0.00    +0.000 A 
ATOM     51  C   UNL     1       8.770  51.118  23.375  0.00  0.00    +0.000 A 
ATOM     52  C   UNL     1       9.044  50.189  24.360  0.00  0.00    +0.000 A 
ATOM     53  C   UNL     1       7.941  49.541  24.902  0.00  0.00    +0.000 A 
ATOM     54  O   UNL     1       7.991  48.989  26.180  0.00  0.00    +0.000 OA
BRANCH   3   2
ATOM      1  C   UNL     1       5.194  48.227  24.698  0.00  0.00    +0.000 C 
ATOM      2  O   UNL     1       5.801  48.567  24.519  0.00  0.00    +0.000 OA
ENDBRANCH   3   2
ENDBRANCH   6   5
ENDBRANCH   8   7
ENDBRANCH  10   8
BRANCH  11  12
ATOM     12  C   UNL     1       6.372  55.650  21.813  0.00  0.00    +0.000 C 
ATOM     13  C   UNL     1       6.850  55.566  23.018  0.00  0.00    +0.000 C 
BRANCH  13  14
ATOM     14  C   UNL     1       8.216  55.271  23.398  0.00  0.00    +0.000 A 
ATOM     15  C   UNL     1       9.208  55.948  22.699  0.00  0.00    +0.000 A 
ATOM     16  C   UNL     1      10.546  55.852  23.052  0.00  0.00    +0.000 A 
ATOM     17  C   UNL     1      10.919  55.000  24.077  0.00  0.00    +0.000 A 
ATOM     18  O   UNL     1      12.257  54.657  24.277  0.00  0.00    +0.000 OA
ATOM     19  C   UNL     1       9.918  54.401  24.836  0.00  0.00    +0.000 A 
ATOM     22  C   UNL     1       8.585  54.552  24.500  0.00  0.00    +0.000 A 
BRANCH  19  20
ATOM     20  O   UNL     1      10.295  53.723  25.997  0.00  0.00    +0.000 OA
ATOM     21  C   UNL     1       9.351  53.167  26.896  0.00  0.00    +0.000 C 
ENDBRANCH  19  20
ENDBRANCH  13  14
ENDBRANCH  11  12
BRANCH  34  35
ATOM     35  C   UNL     1       3.836  52.048  20.064  0.00  0.00    +0.000 C 
ATOM     36  O   UNL     1       3.303  52.694  19.163  0.00  0.00    +0.000 OA
BRANCH  35  37
ATOM     37  C   UNL     1       3.526  50.655  20.309  0.00  0.00    +0.000 C 
ATOM     38  C   UNL     1       4.316  49.644  20.036  0.00  0.00    +0.000 C 
ATOM     39  O   UNL     1       5.344  49.884  19.119  0.00  0.00    +0.000 OA
BRANCH  38  40
ATOM     40  C   UNL     1       4.326  48.431  20.866  0.00  0.00    +0.000 C 
ATOM     41  C   UNL     1       5.372  47.655  21.014  0.00  0.00    +0.000 C 
BRANCH  41  42
ATOM     42  C   UNL     1       5.386  46.218  20.866  0.00  0.00    +0.000 A 
ATOM     43  C   UNL     1       4.632  45.498  19.979  0.00  0.00    +0.000 A 
ATOM     44  C   UNL     1       4.456  44.138  20.167  0.00  0.00    +0.000 A 
ATOM     45  C   UNL     1       5.193  43.449  21.088  0.00  0.00    +0.000 A 
ATOM     46  O   UNL     1       4.913  42.151  21.497  0.00  0.00    +0.000 OA
ATOM     47  C   UNL     1       6.173  44.129  21.773  0.00  0.00    +0.000 A 
ATOM     50  C   UNL     1       6.218  45.493  21.704  0.00  0.00    +0.000 A 
BRANCH  47  48
ATOM     48  O   UNL     1       7.210  43.489  22.441  0.00  0.00    +0.000 OA
ATOM     49  C   UNL     1       7.251  43.343  23.834  0.00  0.00    +0.000 C 
ENDBRANCH  47  48
ENDBRANCH  41  42
ENDBRANCH  38  40
ENDBRANCH  35  37
ENDBRANCH  34  35
TORSDOF 14
ENDMDL
MODEL 3
REMARK VINA RESULT:      -6.5     18.456     23.561
REMARK  Name = 
REMARK  14 active torsions:
REMARK  status: ('A' for Active; 'I' for Inactive)
REMARK    1  A    between atoms: O_2  and  C_3
REMARK    2  A    between atoms: C_5  and  C_6
REMARK    3  A    between atoms: C_7  and  C_8
REMARK    4  A    between atoms: C_8  and  C_10
REMARK    5  A    between atoms: C_11  and  C_12
REMARK    6  A    between atoms: C_13  and  C_14
REMARK    7  A    between atoms: C_19  and  O_20
REMARK    8  A    between atoms: C_24  and  C_25
REMARK    9  A    between atoms: C_30  and  O_31
REMARK   10  A    between atoms: C_34  and  C_35
REMARK   11  A    between atoms: C_35  and  C_37
REMARK   12  A    between atoms: C_38  and  C_40
REMARK   13  A    between atoms: C_41  and  C_42
REMARK   14  A    between atoms: C_47  and  O_48
REMARK                            x       y       z     vdW  Elec       q    Type
REMARK                         _______ _______ _______ _____ _____    ______ ____
ROOT
ATOM     10  C   UNL     1      20.653  69.262  16.000  0.00  0.00    +0.000 C 
ATOM     11  C   UNL     1      20.823  70.336  15.224  0.00  0.00    +0.000 C 
ATOM     23  O   UNL     1      21.164  71.219  16.183  0.00  0.00    +0.000 OA
ATOM     24  C   UNL     1      22.409  70.649  16.917  0.00  0.00    +0.000 C 
ATOM     34  C   UNL     1      22.251  69.078  16.166  0.00  0.00    +0.000 C 
ENDROOT
BRANCH  24  25
ATOM     25  C   UNL     1      23.384  71.174  15.713  0.00  0.00    +0.000 A 
ATOM     26  C   UNL     1      24.540  70.482  15.550  0.00  0.00    +0.000 A 
ATOM     27  C   UNL     1      25.358  70.946  14.523  0.00  0.00    +0.000 A 
ATOM     28  C   UNL     1      25.054  72.105  13.816  0.00  0.00    +0.000 A 
ATOM     29  O   UNL     1      25.321  72.217  12.444  0.00  0.00    +0.000 OA
ATOM     30  C   UNL     1      24.158  72.966  14.445  0.00  0.00    +0.000 A 
ATOM     33  C   UNL     1      23.370  72.518  15.502  0.00  0.00    +0.000 A 
BRANCH  30  31
ATOM     31  O   UNL     1      24.109  74.264  13.977  0.00  0.00    +0.000 OA
ATOM     32  C   UNL     1      23.102  74.781  13.150  0.00  0.00    +0.000 C 
ENDBRANCH  30  31
ENDBRANCH  24  25
BRANCH  10   8
ATOM      8  C   UNL     1      19.965  68.032  15.614  0.00  0.00    +0.000 C 
ATOM      9  O   UNL     1      18.696  68.009  15.561  0.00  0.00    +0.000 OA
BRANCH   8   7
ATOM      6  C   UNL     1      19.939  66.229  13.947  0.00  0.00    +0.000 C 
ATOM      7  C   UNL     1      20.596  67.085  14.688  0.00  0.00    +0.000 C 
BRANCH   6   5
ATOM      3  C   UNL     1      19.551  62.655  14.740  0.00  0.00    +0.000 A 
ATOM      4  C   UNL     1      19.735  64.004  15.011  0.00  0.00    +0.000 A 
ATOM      5  C   UNL     1      20.182  64.780  13.958  0.00  0.00    +0.000 A 
ATOM     51  C   UNL     1      20.806  64.164  12.888  0.00  0.00    +0.000 A 
ATOM     52  C   UNL     1      20.481  62.869  12.540  0.00  0.00    +0.000 A 
ATOM     53  C   UNL     1      20.008  62.066  13.571  0.00  0.00    +0.000 A 
ATOM     54  O   UNL     1      20.117  60.679  13.507  0.00  0.00    +0.000 OA
BRANCH   3   2
ATOM      1  C   UNL     1      18.391  61.570  16.103  0.00  0.00    +0.000 C 
ATOM      2  O   UNL     1      18.682  61.913  15.543  0.00  0.00    +0.000 OA
ENDBRANCH   3   2
ENDBRANCH   6   5
ENDBRANCH   8   7
ENDBRANCH  10   8
BRANCH  11  12
ATOM     12  C   UNL     1      20.125  70.660  13.968  0.00  0.00    +0.000 C 
ATOM     13  C   UNL     1      20.420  70.100  12.834  0.00  0.00    +0.000 C 
BRANCH  13  14
ATOM     14  C   UNL     1      19.532  69.345  11.975  0.00  0.00    +0.000 A 
ATOM     15  C   UNL     1      20.132  68.646  10.934  0.00  0.00    +0.000 A 
ATOM     16  C   UNL     1      19.411  67.785  10.121  0.00  0.00    +0.000 A 
ATOM     17  C   UNL     1      18.043  67.673  10.293  0.00  0.00    +0.000 A 
ATOM     18  O   UNL     1      17.244  67.050   9.333  0.00  0.00    +0.000 OA
ATOM     19  C   UNL     1      17.463  68.296  11.394  0.00  0.00    +0.000 A 
ATOM     22  C   UNL     1      18.210  69.109  12.226  0.00  0.00    +0.000 A 
BRANCH  19  20
ATOM     20  O   UNL     1      16.129  68.000  11.685  0.00  0.00    +0.000 OA
ATOM     21  C   UNL     1      15.754  66.942  12.550  0.00  0.00    +0.000 C 
ENDBRANCH  19  20
ENDBRANCH  13  14
ENDBRANCH  11  12
BRANCH  34  35
ATOM     35  C   UNL     1      22.101  68.310  17.579  0.00  0.00    +0.000 C 
ATOM     36  O   UNL     1      21.683  68.963  18.534  0.00  0.00    +0.000 OA
BRANCH  35  37
ATOM     37  C   UNL     1      22.935  67.138  17.746  0.00  0.00    +0.000 C 
ATOM     38  C   UNL     1      22.508  65.897  17.740  0.00  0.00    +0.000 C 
ATOM     39  O   UNL     1      21.141  65.706  17.965  0.00  0.00    +0.000 OA
BRANCH  38  40
ATOM     40  C   UNL     1      23.338  64.801  17.220  0.00  0.00    +0.000 C 
ATOM     41  C   UNL     1      23.260  64.342  15.995  0.00  0.00    +0.000 C 
BRANCH  41  42
ATOM     42  C   UNL     1      23.142  62.952  15.620  0.00  0.00    +0.000 A 
ATOM     43  C   UNL     1      22.530  61.973  16.356  0.00  0.00    +0.000 A 
ATOM     44  C   UNL     1      22.787  60.641  16.085  0.00  0.00    +0.000 A 
ATOM     45  C   UNL     1      23.464  60.266  14.959  0.00  0.00    +0.000 A 
ATOM     46  O   UNL     1      23.962  58.988  14.738  0.00  0.00    +0.000 OA
ATOM     47  C   UNL     1      23.817  61.245  14.059  0.00  0.00    +0.000 A 
ATOM     50  C   UNL     1      23.712  62.559  14.420  0.00  0.00    +0.000 A 
BRANCH  47  48
ATOM     48  O   UNL     1      24.163  60.970  12.741  0.00  0.00    +0.000 OA
ATOM     49  C   UNL     1      23.236  60.557  11.775  0.00  0.00    +0.000 C 
ENDBRANCH  47  48
ENDBRANCH  41  42
ENDBRANCH  38  40
ENDBRANCH  35  37
ENDBRANCH  34  35
TORSDOF 14
ENDMDL
MODEL 4
REMARK VINA RESULT:      -6.5     18.081     23.189
REMARK  Name = 
REMARK  14 active torsions:
REMARK  status: ('A' for Active; 'I' for Inactive)
REMARK    1  A    between atoms: O_2  and  C_3
REMARK    2  A    between atoms: C_5  and  C_6
REMARK    3  A    between atoms: C_7  and  C_8
REMARK    4  A    between atoms: C_8  and  C_10
REMARK    5  A    between atoms: C_11  and  C_12
REMARK    6  A    between atoms: C_13  and  C_14
REMARK    7  A    between atoms: C_19  and  O_20
REMARK    8  A    between atoms: C_24  and  C_25
REMARK    9  A    between atoms: C_30  and  O_31
REMARK   10  A    between atoms: C_34  and  C_35
REMARK   11  A    between atoms: C_35  and  C_37
REMARK   12  A    between atoms: C_38  and  C_40
REMARK   13  A    between atoms: C_41  and  C_42
REMARK   14  A    between atoms: C_47  and  O_48
REMARK                            x       y       z     vdW  Elec       q    Type
REMARK                         _______ _______ _______ _____ _____    ______ ____
ROOT
ATOM     10  C   UNL     1      20.603  69.363  15.772  0.00  0.00    +0.000 C 
ATOM     11  C   UNL     1      20.752  70.352  14.887  0.00  0.00    +0.000 C 
ATOM     23  O   UNL     1      21.111  71.329  15.743  0.00  0.00    +0.000 OA
ATOM     24  C   UNL     1      22.374  70.838  16.503  0.00  0.00    +0.000 C 
ATOM     34  C   UNL     1      22.204  69.199  15.920  0.00  0.00    +0.000 C 
ENDROOT
BRANCH  24  25
ATOM     25  C   UNL     1      23.320  71.238  15.230  0.00  0.00    +0.000 A 
ATOM     26  C   UNL     1      24.535  70.635  15.189  0.00  0.00    +0.000 A 
ATOM     27  C   UNL     1      25.327  70.992  14.100  0.00  0.00    +0.000 A 
ATOM     28  C   UNL     1      24.935  71.984  13.207  0.00  0.00    +0.000 A 
ATOM     29  O   UNL     1      25.215  71.887  11.837  0.00  0.00    +0.000 OA
ATOM     30  C   UNL     1      23.956  72.854  13.679  0.00  0.00    +0.000 A 
ATOM     33  C   UNL     1      23.191  72.521  14.794  0.00  0.00    +0.000 A 
BRANCH  30  31
ATOM     31  O   UNL     1      23.801  74.045  12.999  0.00  0.00    +0.000 OA
ATOM     32  C   UNL     1      22.732  74.936  13.175  0.00  0.00    +0.000 C 
ENDBRANCH  30  31
ENDBRANCH  24  25
BRANCH  10   8
ATOM      8  C   UNL     1      19.910  68.099  15.529  0.00  0.00    +0.000 C 
ATOM      9  O   UNL     1      18.641  68.072  15.494  0.00  0.00    +0.000 OA
BRANCH   8   7
ATOM      6  C   UNL     1      19.865  66.122  14.073  0.00  0.00    +0.000 C 
ATOM      7  C   UNL     1      20.530  67.057  14.703  0.00  0.00    +0.000 C 
BRANCH   6   5
ATOM      3  C   UNL     1      19.403  62.622  15.115  0.00  0.00    +0.000 A 
ATOM      4  C   UNL     1      19.540  63.993  15.290  0.00  0.00    +0.000 A 
ATOM      5  C   UNL     1      20.115  64.684  14.241  0.00  0.00    +0.000 A 
ATOM     51  C   UNL     1      20.878  63.991  13.317  0.00  0.00    +0.000 A 
ATOM     52  C   UNL     1      20.611  62.665  13.044  0.00  0.00    +0.000 A 
ATOM     53  C   UNL     1      20.014  61.945  14.071  0.00  0.00    +0.000 A 
ATOM     54  O   UNL     1      20.140  60.559  14.142  0.00  0.00    +0.000 OA
BRANCH   3   2
ATOM      1  C   UNL     1      18.115  61.569  16.385  0.00  0.00    +0.000 C 
ATOM      2  O   UNL     1      18.443  61.935  15.861  0.00  0.00    +0.000 OA
ENDBRANCH   3   2
ENDBRANCH   6   5
ENDBRANCH   8   7
ENDBRANCH  10   8
BRANCH  11  12
ATOM     12  C   UNL     1      20.024  70.546  13.621  0.00  0.00    +0.000 C 
ATOM     13  C   UNL     1      20.331  69.912  12.529  0.00  0.00    +0.000 C 
BRANCH  13  14
ATOM     14  C   UNL     1      19.468  69.054  11.745  0.00  0.00    +0.000 A 
ATOM     15  C   UNL     1      20.100  68.204  10.846  0.00  0.00    +0.000 A 
ATOM     16  C   UNL     1      19.399  67.245  10.130  0.00  0.00    +0.000 A 
ATOM     17  C   UNL     1      18.022  67.179  10.250  0.00  0.00    +0.000 A 
ATOM     18  O   UNL     1      17.255  66.436   9.351  0.00  0.00    +0.000 OA
ATOM     19  C   UNL     1      17.405  67.962  11.221  0.00  0.00    +0.000 A 
ATOM     22  C   UNL     1      18.130  68.876  11.963  0.00  0.00    +0.000 A 
BRANCH  19  20
ATOM     20  O   UNL     1      16.054  67.731  11.486  0.00  0.00    +0.000 OA
ATOM     21  C   UNL     1      15.616  66.918  12.561  0.00  0.00    +0.000 C 
ENDBRANCH  19  20
ENDBRANCH  13  14
ENDBRANCH  11  12
BRANCH  34  35
ATOM     35  C   UNL     1      22.089  68.578  17.406  0.00  0.00    +0.000 C 
ATOM     36  O   UNL     1      21.724  69.334  18.306  0.00  0.00    +0.000 OA
BRANCH  35  37
ATOM     37  C   UNL     1      22.899  67.405  17.660  0.00  0.00    +0.000 C 
ATOM     38  C   UNL     1      22.439  66.186  17.819  0.00  0.00    +0.000 C 
ATOM     39  O   UNL     1      21.082  66.068  18.139  0.00  0.00    +0.000 OA
BRANCH  38  40
ATOM     40  C   UNL     1      23.206  65.011  17.383  0.00  0.00    +0.000 C 
ATOM     41  C   UNL     1      22.764  64.126  16.524  0.00  0.00    +0.000 C 
BRANCH  41  42
ATOM     42  C   UNL     1      22.783  62.693  16.702  0.00  0.00    +0.000 A 
ATOM     43  C   UNL     1      23.468  61.799  15.925  0.00  0.00    +0.000 A 
ATOM     44  C   UNL     1      23.135  60.456  15.958  0.00  0.00    +0.000 A 
ATOM     45  C   UNL     1      22.289  59.960  16.908  0.00  0.00    +0.000 A 
ATOM     46  O   UNL     1      21.725  58.690  16.866  0.00  0.00    +0.000 OA
ATOM     47  C   UNL     1      21.835  60.818  17.883  0.00  0.00    +0.000 A 
ATOM     50  C   UNL     1      22.031  62.163  17.739  0.00  0.00    +0.000 A 
BRANCH  47  48
ATOM     48  O   UNL     1      21.290  60.377  19.083  0.00  0.00    +0.000 OA
ATOM     49  C   UNL     1      21.842  60.683  20.334  0.00  0.00    +0.000 C 
ENDBRANCH  47  48
ENDBRANCH  41  42
ENDBRANCH  38  40
ENDBRANCH  35  37
ENDBRANCH  34  35
TORSDOF 14
ENDMDL
MODEL 5
REMARK VINA RESULT:      -6.3     12.277     16.773
REMARK  Name = 
REMARK  14 active torsions:
REMARK  status: ('A' for Active; 'I' for Inactive)
REMARK    1  A    between atoms: O_2  and  C_3
REMARK    2  A    between atoms: C_5  and  C_6
REMARK    3  A    between atoms: C_7  and  C_8
REMARK    4  A    between atoms: C_8  and  C_10
REMARK    5  A    between atoms: C_11  and  C_12
REMARK    6  A    between atoms: C_13  and  C_14
REMARK    7  A    between atoms: C_19  and  O_20
REMARK    8  A    between atoms: C_24  and  C_25
REMARK    9  A    between atoms: C_30  and  O_31
REMARK   10  A    between atoms: C_34  and  C_35
REMARK   11  A    between atoms: C_35  and  C_37
REMARK   12  A    between atoms: C_38  and  C_40
REMARK   13  A    between atoms: C_41  and  C_42
REMARK   14  A    between atoms: C_47  and  O_48
REMARK                            x       y       z     vdW  Elec       q    Type
REMARK                         _______ _______ _______ _____ _____    ______ ____
ROOT
ATOM     10  C   UNL     1       3.113  59.820   6.708  0.00  0.00    +0.000 C 
ATOM     11  C   UNL     1       3.985  58.840   6.452  0.00  0.00    +0.000 C 
ATOM     23  O   UNL     1       5.038  59.601   6.096  0.00  0.00    +0.000 OA
ATOM     24  C   UNL     1       5.344  60.554   7.284  0.00  0.00    +0.000 C 
ATOM     34  C   UNL     1       3.850  60.165   8.105  0.00  0.00    +0.000 C 
ENDROOT
BRANCH  24  25
ATOM     25  C   UNL     1       6.135  59.356   8.067  0.00  0.00    +0.000 A 
ATOM     26  C   UNL     1       5.826  59.209   9.380  0.00  0.00    +0.000 A 
ATOM     27  C   UNL     1       6.513  58.185  10.030  0.00  0.00    +0.000 A 
ATOM     28  C   UNL     1       7.523  57.467   9.396  0.00  0.00    +0.000 A 
ATOM     29  O   UNL     1       7.705  56.098   9.632  0.00  0.00    +0.000 OA
ATOM     30  C   UNL     1       8.073  58.082   8.274  0.00  0.00    +0.000 A 
ATOM     33  C   UNL     1       7.411  59.135   7.648  0.00  0.00    +0.000 A 
BRANCH  30  31
ATOM     31  O   UNL     1       9.293  57.605   7.839  0.00  0.00    +0.000 OA
ATOM     32  C   UNL     1       9.496  56.889   6.651  0.00  0.00    +0.000 C 
ENDBRANCH  30  31
ENDBRANCH  24  25
BRANCH  10   8
ATOM      8  C   UNL     1       1.667  59.660   6.838  0.00  0.00    +0.000 C 
ATOM      9  O   UNL     1       0.905  60.005   5.883  0.00  0.00    +0.000 OA
BRANCH   8   7
ATOM      6  C   UNL     1       0.662  58.732   8.878  0.00  0.00    +0.000 C 
ATOM      7  C   UNL     1       1.107  58.578   7.657  0.00  0.00    +0.000 C 
BRANCH   6   5
ATOM      3  C   UNL     1       0.990  55.995  11.318  0.00  0.00    +0.000 A 
ATOM      4  C   UNL     1       0.335  56.991  10.605  0.00  0.00    +0.000 A 
ATOM      5  C   UNL     1       1.140  57.955  10.029  0.00  0.00    +0.000 A 
ATOM     51  C   UNL     1       2.424  58.135  10.513  0.00  0.00    +0.000 A 
ATOM     52  C   UNL     1       3.115  57.079  11.072  0.00  0.00    +0.000 A 
ATOM     53  C   UNL     1       2.335  56.081  11.643  0.00  0.00    +0.000 A 
ATOM     54  O   UNL     1       2.847  55.254  12.640  0.00  0.00    +0.000 OA
BRANCH   3   2
ATOM      1  C   UNL     1       0.194  54.108  11.747  0.00  0.00    +0.000 C 
ATOM      2  O   UNL     1       0.351  54.769  11.515  0.00  0.00    +0.000 OA
ENDBRANCH   3   2
ENDBRANCH   6   5
ENDBRANCH   8   7
ENDBRANCH  10   8
BRANCH  11  12
ATOM     12  C   UNL     1       3.697  57.486   5.949  0.00  0.00    +0.000 C 
ATOM     13  C   UNL     1       3.963  56.411   6.628  0.00  0.00    +0.000 C 
BRANCH  13  14
ATOM     14  C   UNL     1       3.031  55.382   7.038  0.00  0.00    +0.000 A 
ATOM     15  C   UNL     1       3.329  54.721   8.223  0.00  0.00    +0.000 A 
ATOM     16  C   UNL     1       2.453  53.807   8.791  0.00  0.00    +0.000 A 
ATOM     17  C   UNL     1       1.283  53.483   8.126  0.00  0.00    +0.000 A 
ATOM     18  O   UNL     1       0.520  52.378   8.506  0.00  0.00    +0.000 OA
ATOM     19  C   UNL     1       0.942  54.217   6.994  0.00  0.00    +0.000 A 
ATOM     22  C   UNL     1       1.806  55.163   6.472  0.00  0.00    +0.000 A 
BRANCH  19  20
ATOM     20  O   UNL     1      -0.335  54.037   6.457  0.00  0.00    +0.000 OA
ATOM     21  C   UNL     1      -0.550  53.481   5.172  0.00  0.00    +0.000 C 
ENDBRANCH  19  20
ENDBRANCH  13  14
ENDBRANCH  11  12
BRANCH  34  35
ATOM     35  C   UNL     1       3.333  61.696   8.096  0.00  0.00    +0.000 C 
ATOM     36  O   UNL     1       3.780  62.436   7.221  0.00  0.00    +0.000 OA
BRANCH  35  37
ATOM     37  C   UNL     1       2.843  62.199   9.362  0.00  0.00    +0.000 C 
ATOM     38  C   UNL     1       1.579  62.318   9.692  0.00  0.00    +0.000 C 
ATOM     39  O   UNL     1       0.657  62.322   8.640  0.00  0.00    +0.000 OA
BRANCH  38  40
ATOM     40  C   UNL     1       1.126  62.142  11.079  0.00  0.00    +0.000 C 
ATOM     41  C   UNL     1       1.821  61.525  12.003  0.00  0.00    +0.000 C 
BRANCH  41  42
ATOM     42  C   UNL     1       1.328  60.488  12.879  0.00  0.00    +0.000 A 
ATOM     43  C   UNL     1       2.072  59.794  13.794  0.00  0.00    +0.000 A 
ATOM     44  C   UNL     1       1.596  58.602  14.311  0.00  0.00    +0.000 A 
ATOM     45  C   UNL     1       0.305  58.206  14.103  0.00  0.00    +0.000 A 
ATOM     46  O   UNL     1      -0.175  56.931  14.381  0.00  0.00    +0.000 OA
ATOM     47  C   UNL     1      -0.535  59.062  13.429  0.00  0.00    +0.000 A 
ATOM     50  C   UNL     1      -0.011  60.146  12.781  0.00  0.00    +0.000 A 
BRANCH  47  48
ATOM     48  O   UNL     1      -1.920  58.954  13.475  0.00  0.00    +0.000 OA
ATOM     49  C   UNL     1      -2.687  58.466  12.410  0.00  0.00    +0.000 C 
ENDBRANCH  47  48
ENDBRANCH  41  42
ENDBRANCH  38  40
ENDBRANCH  35  37
ENDBRANCH  34  35
TORSDOF 14
ENDMDL
MODEL 6
REMARK VINA RESULT:      -6.1     17.875     22.945
REMARK  Name = 
REMARK  14 active torsions:
REMARK  status: ('A' for Active; 'I' for Inactive)
REMARK    1  A    between atoms: O_2  and  C_3
REMARK    2  A    between atoms: C_5  and  C_6
REMARK    3  A    between atoms: C_7  and  C_8
REMARK    4  A    between atoms: C_8  and  C_10
REMARK    5  A    between atoms: C_11  and  C_12
REMARK    6  A    between atoms: C_13  and  C_14
REMARK    7  A    between atoms: C_19  and  O_20
REMARK    8  A    between atoms: C_24  and  C_25
REMARK    9  A    between atoms: C_30  and  O_31
REMARK   10  A    between atoms: C_34  and  C_35
REMARK   11  A    between atoms: C_35  and  C_37
REMARK   12  A    between atoms: C_38  and  C_40
REMARK   13  A    between atoms: C_41  and  C_42
REMARK   14  A    between atoms: C_47  and  O_48
REMARK                            x       y       z     vdW  Elec       q    Type
REMARK                         _______ _______ _______ _____ _____    ______ ____
ROOT
ATOM     10  C   UNL     1      20.174  68.872  15.418  0.00  0.00    +0.000 C 
ATOM     11  C   UNL     1      20.376  69.963  14.671  0.00  0.00    +0.000 C 
ATOM     23  O   UNL     1      20.722  70.814  15.657  0.00  0.00    +0.000 OA
ATOM     24  C   UNL     1      21.945  70.200  16.393  0.00  0.00    +0.000 C 
ATOM     34  C   UNL     1      21.765  68.652  15.599  0.00  0.00    +0.000 C 
ENDROOT
BRANCH  24  25
ATOM     25  C   UNL     1      22.946  70.735  15.215  0.00  0.00    +0.000 A 
ATOM     26  C   UNL     1      24.033  69.960  14.972  0.00  0.00    +0.000 A 
ATOM     27  C   UNL     1      24.875  70.435  13.968  0.00  0.00    +0.000 A 
ATOM     28  C   UNL     1      24.667  71.671  13.365  0.00  0.00    +0.000 A 
ATOM     29  O   UNL     1      24.923  71.873  12.002  0.00  0.00    +0.000 OA
ATOM     30  C   UNL     1      23.860  72.552  14.082  0.00  0.00    +0.000 A 
ATOM     33  C   UNL     1      23.050  72.088  15.115  0.00  0.00    +0.000 A 
BRANCH  30  31
ATOM     31  O   UNL     1      23.922  73.884  13.723  0.00  0.00    +0.000 OA
ATOM     32  C   UNL     1      22.818  74.666  13.355  0.00  0.00    +0.000 C 
ENDBRANCH  30  31
ENDBRANCH  24  25
BRANCH  10   8
ATOM      8  C   UNL     1      19.466  67.667  14.991  0.00  0.00    +0.000 C 
ATOM      9  O   UNL     1      18.213  67.575  15.170  0.00  0.00    +0.000 OA
BRANCH   8   7
ATOM      6  C   UNL     1      19.608  65.652  13.594  0.00  0.00    +0.000 C 
ATOM      7  C   UNL     1      19.940  66.895  13.836  0.00  0.00    +0.000 C 
BRANCH   6   5
ATOM      3  C   UNL     1      22.668  63.637  13.957  0.00  0.00    +0.000 A 
ATOM      4  C   UNL     1      21.919  64.773  13.676  0.00  0.00    +0.000 A 
ATOM      5  C   UNL     1      20.579  64.566  13.407  0.00  0.00    +0.000 A 
ATOM     51  C   UNL     1      20.159  63.307  13.019  0.00  0.00    +0.000 A 
ATOM     52  C   UNL     1      20.830  62.181  13.451  0.00  0.00    +0.000 A 
ATOM     53  C   UNL     1      22.176  62.357  13.750  0.00  0.00    +0.000 A 
ATOM     54  O   UNL     1      23.066  61.287  13.706  0.00  0.00    +0.000 OA
BRANCH   3   2
ATOM      1  C   UNL     1      24.322  63.899  15.212  0.00  0.00    +0.000 C 
ATOM      2  O   UNL     1      23.852  63.767  14.685  0.00  0.00    +0.000 OA
ENDBRANCH   3   2
ENDBRANCH   6   5
ENDBRANCH   8   7
ENDBRANCH  10   8
BRANCH  11  12
ATOM     12  C   UNL     1      19.701  70.333  13.416  0.00  0.00    +0.000 C 
ATOM     13  C   UNL     1      20.097  69.910  12.253  0.00  0.00    +0.000 C 
BRANCH  13  14
ATOM     14  C   UNL     1      19.325  69.157  11.287  0.00  0.00    +0.000 A 
ATOM     15  C   UNL     1      20.052  68.424  10.358  0.00  0.00    +0.000 A 
ATOM     16  C   UNL     1      19.435  67.561   9.463  0.00  0.00    +0.000 A 
ATOM     17  C   UNL     1      18.054  67.482   9.438  0.00  0.00    +0.000 A 
ATOM     18  O   UNL     1      17.387  66.857   8.383  0.00  0.00    +0.000 OA
ATOM     19  C   UNL     1      17.336  68.141  10.431  0.00  0.00    +0.000 A 
ATOM     22  C   UNL     1      17.974  68.955  11.349  0.00  0.00    +0.000 A 
BRANCH  19  20
ATOM     20  O   UNL     1      15.967  67.881  10.531  0.00  0.00    +0.000 OA
ATOM     21  C   UNL     1      15.458  66.677  11.078  0.00  0.00    +0.000 C 
ENDBRANCH  19  20
ENDBRANCH  13  14
ENDBRANCH  11  12
BRANCH  34  35
ATOM     35  C   UNL     1      21.582  67.851  16.989  0.00  0.00    +0.000 C 
ATOM     36  O   UNL     1      21.576  68.514  18.026  0.00  0.00    +0.000 OA
BRANCH  35  37
ATOM     37  C   UNL     1      21.966  66.455  16.964  0.00  0.00    +0.000 C 
ATOM     38  C   UNL     1      21.757  65.594  17.930  0.00  0.00    +0.000 C 
ATOM     39  O   UNL     1      21.495  66.127  19.197  0.00  0.00    +0.000 OA
BRANCH  38  40
ATOM     40  C   UNL     1      21.499  64.174  17.653  0.00  0.00    +0.000 C 
ATOM     41  C   UNL     1      20.520  63.743  16.894  0.00  0.00    +0.000 C 
BRANCH  41  42
ATOM     42  C   UNL     1      19.578  62.705  17.241  0.00  0.00    +0.000 A 
ATOM     43  C   UNL     1      18.711  62.090  16.378  0.00  0.00    +0.000 A 
ATOM     44  C   UNL     1      17.627  61.387  16.871  0.00  0.00    +0.000 A 
ATOM     45  C   UNL     1      17.515  61.100  18.202  0.00  0.00    +0.000 A 
ATOM     46  O   UNL     1      16.359  60.614  18.802  0.00  0.00    +0.000 OA
ATOM     47  C   UNL     1      18.551  61.462  19.032  0.00  0.00    +0.000 A 
ATOM     50  C   UNL     1      19.525  62.300  18.565  0.00  0.00    +0.000 A 
BRANCH  47  48
ATOM     48  O   UNL     1      18.731  60.916  20.297  0.00  0.00    +0.000 OA
ATOM     49  C   UNL     1      19.937  61.001  21.005  0.00  0.00    +0.000 C 
ENDBRANCH  47  48
ENDBRANCH  41  42
ENDBRANCH  38  40
ENDBRANCH  35  37
ENDBRANCH  34  35
TORSDOF 14
ENDMDL
MODEL 7
REMARK VINA RESULT:      -6.1     12.643     17.124
REMARK  Name = 
REMARK  14 active torsions:
REMARK  status: ('A' for Active; 'I' for Inactive)
REMARK    1  A    between atoms: O_2  and  C_3
REMARK    2  A    between atoms: C_5  and  C_6
REMARK    3  A    between atoms: C_7  and  C_8
REMARK    4  A    between atoms: C_8  and  C_10
REMARK    5  A    between atoms: C_11  and  C_12
REMARK    6  A    between atoms: C_13  and  C_14
REMARK    7  A    between atoms: C_19  and  O_20
REMARK    8  A    between atoms: C_24  and  C_25
REMARK    9  A    between atoms: C_30  and  O_31
REMARK   10  A    between atoms: C_34  and  C_35
REMARK   11  A    between atoms: C_35  and  C_37
REMARK   12  A    between atoms: C_38  and  C_40
REMARK   13  A    between atoms: C_41  and  C_42
REMARK   14  A    between atoms: C_47  and  O_48
REMARK                            x       y       z     vdW  Elec       q    Type
REMARK                         _______ _______ _______ _____ _____    ______ ____
ROOT
ATOM     10  C   UNL     1       2.486  60.635   6.985  0.00  0.00    +0.000 C 
ATOM     11  C   UNL     1       3.421  59.839   6.457  0.00  0.00    +0.000 C 
ATOM     23  O   UNL     1       4.345  60.780   6.178  0.00  0.00    +0.000 OA
ATOM     24  C   UNL     1       4.679  61.511   7.508  0.00  0.00    +0.000 C 
ATOM     34  C   UNL     1       3.331  60.788   8.355  0.00  0.00    +0.000 C 
ENDROOT
BRANCH  24  25
ATOM     25  C   UNL     1       5.670  60.289   7.953  0.00  0.00    +0.000 A 
ATOM     26  C   UNL     1       5.448  59.775   9.190  0.00  0.00    +0.000 A 
ATOM     27  C   UNL     1       6.305  58.737   9.553  0.00  0.00    +0.000 A 
ATOM     28  C   UNL     1       7.375  58.360   8.748  0.00  0.00    +0.000 A 
ATOM     29  O   UNL     1       7.763  57.018   8.627  0.00  0.00    +0.000 OA
ATOM     30  C   UNL     1       7.778  59.310   7.812  0.00  0.00    +0.000 A 
ATOM     33  C   UNL     1       6.943  60.373   7.479  0.00  0.00    +0.000 A 
BRANCH  30  31
ATOM     31  O   UNL     1       9.032  59.145   7.257  0.00  0.00    +0.000 OA
ATOM     32  C   UNL     1       9.291  59.022   5.885  0.00  0.00    +0.000 C 
ENDBRANCH  30  31
ENDBRANCH  24  25
BRANCH  10   8
ATOM      8  C   UNL     1       1.086  60.276   7.203  0.00  0.00    +0.000 C 
ATOM      9  O   UNL     1       0.193  60.710   6.413  0.00  0.00    +0.000 OA
BRANCH   8   7
ATOM      6  C   UNL     1       0.410  58.841   9.078  0.00  0.00    +0.000 C 
ATOM      7  C   UNL     1       0.734  58.991   7.819  0.00  0.00    +0.000 C 
BRANCH   6   5
ATOM      3  C   UNL     1       1.366  55.710  10.762  0.00  0.00    +0.000 A 
ATOM      4  C   UNL     1       0.503  56.708  10.328  0.00  0.00    +0.000 A 
ATOM      5  C   UNL     1       1.088  57.914   9.994  0.00  0.00    +0.000 A 
ATOM     51  C   UNL     1       2.346  58.210  10.487  0.00  0.00    +0.000 A 
ATOM     52  C   UNL     1       3.247  57.199  10.757  0.00  0.00    +0.000 A 
ATOM     53  C   UNL     1       2.692  55.965  11.076  0.00  0.00    +0.000 A 
ATOM     54  O   UNL     1       3.402  55.034  11.831  0.00  0.00    +0.000 OA
BRANCH   3   2
ATOM      1  C   UNL     1       0.573  53.784  10.562  0.00  0.00    +0.000 C 
ATOM      2  O   UNL     1       0.968  54.376  10.660  0.00  0.00    +0.000 OA
ENDBRANCH   3   2
ENDBRANCH   6   5
ENDBRANCH   8   7
ENDBRANCH  10   8
BRANCH  11  12
ATOM     12  C   UNL     1       3.220  58.586   5.711  0.00  0.00    +0.000 C 
ATOM     13  C   UNL     1       4.123  58.083   4.924  0.00  0.00    +0.000 C 
BRANCH  13  14
ATOM     14  C   UNL     1       4.730  56.772   5.013  0.00  0.00    +0.000 A 
ATOM     15  C   UNL     1       4.331  55.983   6.085  0.00  0.00    +0.000 A 
ATOM     16  C   UNL     1       4.739  54.663   6.213  0.00  0.00    +0.000 A 
ATOM     17  C   UNL     1       5.629  54.135   5.294  0.00  0.00    +0.000 A 
ATOM     18  O   UNL     1       6.281  52.924   5.537  0.00  0.00    +0.000 OA
ATOM     19  C   UNL     1       5.949  54.893   4.172  0.00  0.00    +0.000 A 
ATOM     22  C   UNL     1       5.488  56.190   4.036  0.00  0.00    +0.000 A 
BRANCH  19  20
ATOM     20  O   UNL     1       6.668  54.274   3.147  0.00  0.00    +0.000 OA
ATOM     21  C   UNL     1       6.491  54.609   1.782  0.00  0.00    +0.000 C 
ENDBRANCH  19  20
ENDBRANCH  13  14
ENDBRANCH  11  12
BRANCH  34  35
ATOM     35  C   UNL     1       2.662  62.214   8.708  0.00  0.00    +0.000 C 
ATOM     36  O   UNL     1       2.980  63.175   8.009  0.00  0.00    +0.000 OA
BRANCH  35  37
ATOM     37  C   UNL     1       2.196  62.367  10.071  0.00  0.00    +0.000 C 
ATOM     38  C   UNL     1       0.938  62.417  10.440  0.00  0.00    +0.000 C 
ATOM     39  O   UNL     1       0.005  62.721   9.442  0.00  0.00    +0.000 OA
BRANCH  38  40
ATOM     40  C   UNL     1       0.495  61.883  11.735  0.00  0.00    +0.000 C 
ATOM     41  C   UNL     1       1.281  61.254  12.575  0.00  0.00    +0.000 C 
BRANCH  41  42
ATOM     42  C   UNL     1       1.000  59.987  13.208  0.00  0.00    +0.000 A 
ATOM     43  C   UNL     1       1.905  59.208  13.877  0.00  0.00    +0.000 A 
ATOM     44  C   UNL     1       1.623  57.876  14.123  0.00  0.00    +0.000 A 
ATOM     45  C   UNL     1       0.373  57.367  13.913  0.00  0.00    +0.000 A 
ATOM     46  O   UNL     1       0.073  56.009  13.908  0.00  0.00    +0.000 OA
ATOM     47  C   UNL     1      -0.622  58.233  13.523  0.00  0.00    +0.000 A 
ATOM     50  C   UNL     1      -0.294  59.497  13.121  0.00  0.00    +0.000 A 
BRANCH  47  48
ATOM     48  O   UNL     1      -1.974  57.930  13.635  0.00  0.00    +0.000 OA
ATOM     49  C   UNL     1      -2.840  57.868  12.535  0.00  0.00    +0.000 C 
ENDBRANCH  47  48
ENDBRANCH  41  42
ENDBRANCH  38  40
ENDBRANCH  35  37
ENDBRANCH  34  35
TORSDOF 14
ENDMDL
MODEL 8
REMARK VINA RESULT:      -6.0      2.732      8.421
REMARK  Name = 
REMARK  14 active torsions:
REMARK  status: ('A' for Active; 'I' for Inactive)
REMARK    1  A    between atoms: O_2  and  C_3
REMARK    2  A    between atoms: C_5  and  C_6
REMARK    3  A    between atoms: C_7  and  C_8
REMARK    4  A    between atoms: C_8  and  C_10
REMARK    5  A    between atoms: C_11  and  C_12
REMARK    6  A    between atoms: C_13  and  C_14
REMARK    7  A    between atoms: C_19  and  O_20
REMARK    8  A    between atoms: C_24  and  C_25
REMARK    9  A    between atoms: C_30  and  O_31
REMARK   10  A    between atoms: C_34  and  C_35
REMARK   11  A    between atoms: C_35  and  C_37
REMARK   12  A    between atoms: C_38  and  C_40
REMARK   13  A    between atoms: C_41  and  C_42
REMARK   14  A    between atoms: C_47  and  O_48
REMARK                            x       y       z     vdW  Elec       q    Type
REMARK                         _______ _______ _______ _____ _____    ______ ____
ROOT
ATOM     10  C   UNL     1       6.576  54.092  20.945  0.00  0.00    +0.000 C 
ATOM     11  C   UNL     1       7.032  52.844  20.799  0.00  0.00    +0.000 C 
ATOM     23  O   UNL     1       8.250  53.013  21.350  0.00  0.00    +0.000 OA
ATOM     24  C   UNL     1       8.036  53.542  22.795  0.00  0.00    +0.000 C 
ATOM     34  C   UNL     1       6.337  53.861  22.528  0.00  0.00    +0.000 C 
ENDROOT
BRANCH  24  25
ATOM     25  C   UNL     1       7.712  52.029  23.323  0.00  0.00    +0.000 A 
ATOM     26  C   UNL     1       6.607  51.902  24.101  0.00  0.00    +0.000 A 
ATOM     27  C   UNL     1       6.351  50.606  24.544  0.00  0.00    +0.000 A 
ATOM     28  C   UNL     1       7.239  49.563  24.300  0.00  0.00    +0.000 A 
ATOM     29  O   UNL     1       6.786  48.265  24.030  0.00  0.00    +0.000 OA
ATOM     30  C   UNL     1       8.537  49.952  23.977  0.00  0.00    +0.000 A 
ATOM     33  C   UNL     1       8.805  51.258  23.576  0.00  0.00    +0.000 A 
BRANCH  30  31
ATOM     31  O   UNL     1       9.521  48.990  24.088  0.00  0.00    +0.000 OA
ATOM     32  C   UNL     1      10.035  48.506  25.299  0.00  0.00    +0.000 C 
ENDBRANCH  30  31
ENDBRANCH  24  25
BRANCH  10   8
ATOM      8  C   UNL     1       5.419  54.662  20.261  0.00  0.00    +0.000 C 
ATOM      9  O   UNL     1       5.588  55.381  19.228  0.00  0.00    +0.000 OA
BRANCH   8   7
ATOM      6  C   UNL     1       3.145  54.240  21.086  0.00  0.00    +0.000 C 
ATOM      7  C   UNL     1       4.129  53.962  20.269  0.00  0.00    +0.000 C 
BRANCH   6   5
ATOM      3  C   UNL     1       0.782  51.698  22.314  0.00  0.00    +0.000 A 
ATOM      4  C   UNL     1       1.175  52.934  21.819  0.00  0.00    +0.000 A 
ATOM      5  C   UNL     1       2.511  53.253  21.970  0.00  0.00    +0.000 A 
ATOM     51  C   UNL     1       3.256  52.585  22.926  0.00  0.00    +0.000 A 
ATOM     52  C   UNL     1       2.938  51.289  23.281  0.00  0.00    +0.000 A 
ATOM     53  C   UNL     1       1.606  50.929  23.122  0.00  0.00    +0.000 A 
ATOM     54  O   UNL     1       1.049  49.893  23.869  0.00  0.00    +0.000 OA
BRANCH   3   2
ATOM      1  C   UNL     1      -0.983  50.982  21.445  0.00  0.00    +0.000 C 
ATOM      2  O   UNL     1      -0.372  51.098  21.805  0.00  0.00    +0.000 OA
ENDBRANCH   3   2
ENDBRANCH   6   5
ENDBRANCH   8   7
ENDBRANCH  10   8
BRANCH  11  12
ATOM     12  C   UNL     1       6.698  51.883  19.734  0.00  0.00    +0.000 C 
ATOM     13  C   UNL     1       5.824  50.934  19.890  0.00  0.00    +0.000 C 
BRANCH  13  14
ATOM     14  C   UNL     1       4.630  50.706  19.104  0.00  0.00    +0.000 A 
ATOM     15  C   UNL     1       3.505  50.287  19.803  0.00  0.00    +0.000 A 
ATOM     16  C   UNL     1       2.268  50.158  19.189  0.00  0.00    +0.000 A 
ATOM     17  C   UNL     1       2.160  50.377  17.826  0.00  0.00    +0.000 A 
ATOM     18  O   UNL     1       1.019  49.988  17.123  0.00  0.00    +0.000 OA
ATOM     19  C   UNL     1       3.263  50.890  17.150  0.00  0.00    +0.000 A 
ATOM     22  C   UNL     1       4.475  51.062  17.793  0.00  0.00    +0.000 A 
BRANCH  19  20
ATOM     20  O   UNL     1       3.082  51.312  15.831  0.00  0.00    +0.000 OA
ATOM     21  C   UNL     1       2.819  52.663  15.493  0.00  0.00    +0.000 C 
ENDBRANCH  19  20
ENDBRANCH  13  14
ENDBRANCH  11  12
BRANCH  34  35
ATOM     35  C   UNL     1       6.479  55.434  22.865  0.00  0.00    +0.000 C 
ATOM     36  O   UNL     1       7.552  55.974  22.594  0.00  0.00    +0.000 OA
BRANCH  35  37
ATOM     37  C   UNL     1       5.597  55.936  23.897  0.00  0.00    +0.000 C 
ATOM     38  C   UNL     1       4.488  56.605  23.688  0.00  0.00    +0.000 C 
ATOM     39  O   UNL     1       4.343  57.194  22.427  0.00  0.00    +0.000 OA
BRANCH  38  40
ATOM     40  C   UNL     1       3.335  56.485  24.591  0.00  0.00    +0.000 C 
ATOM     41  C   UNL     1       3.253  55.604  25.558  0.00  0.00    +0.000 C 
BRANCH  41  42
ATOM     42  C   UNL     1       2.133  54.726  25.808  0.00  0.00    +0.000 A 
ATOM     43  C   UNL     1       2.194  53.507  26.427  0.00  0.00    +0.000 A 
ATOM     44  C   UNL     1       1.150  52.610  26.292  0.00  0.00    +0.000 A 
ATOM     45  C   UNL     1      -0.041  52.987  25.740  0.00  0.00    +0.000 A 
ATOM     46  O   UNL     1      -1.040  52.100  25.356  0.00  0.00    +0.000 OA
ATOM     47  C   UNL     1      -0.203  54.308  25.390  0.00  0.00    +0.000 A 
ATOM     50  C   UNL     1       0.884  55.136  25.369  0.00  0.00    +0.000 A 
BRANCH  47  48
ATOM     48  O   UNL     1      -1.449  54.885  25.175  0.00  0.00    +0.000 OA
ATOM     49  C   UNL     1      -2.197  55.497  26.189  0.00  0.00    +0.000 C 
ENDBRANCH  47  48
ENDBRANCH  41  42
ENDBRANCH  38  40
ENDBRANCH  35  37
ENDBRANCH  34  35
TORSDOF 14
ENDMDL
MODEL 9
REMARK VINA RESULT:      -5.9     11.741     15.683
REMARK  Name = 
REMARK  14 active torsions:
REMARK  status: ('A' for Active; 'I' for Inactive)
REMARK    1  A    between atoms: O_2  and  C_3
REMARK    2  A    between atoms: C_5  and  C_6
REMARK    3  A    between atoms: C_7  and  C_8
REMARK    4  A    between atoms: C_8  and  C_10
REMARK    5  A    between atoms: C_11  and  C_12
REMARK    6  A    between atoms: C_13  and  C_14
REMARK    7  A    between atoms: C_19  and  O_20
REMARK    8  A    between atoms: C_24  and  C_25
REMARK    9  A    between atoms: C_30  and  O_31
REMARK   10  A    between atoms: C_34  and  C_35
REMARK   11  A    between atoms: C_35  and  C_37
REMARK   12  A    between atoms: C_38  and  C_40
REMARK   13  A    between atoms: C_41  and  C_42
REMARK   14  A    between atoms: C_47  and  O_48
REMARK                            x       y       z     vdW  Elec       q    Type
REMARK                         _______ _______ _______ _____ _____    ______ ____
ROOT
ATOM     10  C   UNL     1      -2.580  59.841  11.896  0.00  0.00    +0.000 C 
ATOM     11  C   UNL     1      -1.420  60.083  12.515  0.00  0.00    +0.000 C 
ATOM     23  O   UNL     1      -1.696  59.483  13.690  0.00  0.00    +0.000 OA
ATOM     24  C   UNL     1      -2.060  58.004  13.382  0.00  0.00    +0.000 C 
ATOM     34  C   UNL     1      -2.178  58.292  11.662  0.00  0.00    +0.000 C 
ENDROOT
BRANCH  24  25
ATOM     25  C   UNL     1      -0.476  57.621  13.252  0.00  0.00    +0.000 A 
ATOM     26  C   UNL     1      -0.210  56.388  12.751  0.00  0.00    +0.000 A 
ATOM     27  C   UNL     1       1.146  56.079  12.652  0.00  0.00    +0.000 A 
ATOM     28  C   UNL     1       2.126  56.930  13.151  0.00  0.00    +0.000 A 
ATOM     29  O   UNL     1       3.355  57.093  12.498  0.00  0.00    +0.000 OA
ATOM     30  C   UNL     1       1.684  57.859  14.090  0.00  0.00    +0.000 A 
ATOM     33  C   UNL     1       0.326  58.139  14.222  0.00  0.00    +0.000 A 
BRANCH  30  31
ATOM     31  O   UNL     1       2.649  58.462  14.872  0.00  0.00    +0.000 OA
ATOM     32  C   UNL     1       2.496  59.693  15.525  0.00  0.00    +0.000 C 
ENDBRANCH  30  31
ENDBRANCH  24  25
BRANCH  10   8
ATOM      8  C   UNL     1      -3.054  60.507  10.685  0.00  0.00    +0.000 C 
ATOM      9  O   UNL     1      -3.529  61.683  10.757  0.00  0.00    +0.000 OA
BRANCH   8   7
ATOM      6  C   UNL     1      -1.163  60.010   9.200  0.00  0.00    +0.000 C 
ATOM      7  C   UNL     1      -2.442  60.213   9.384  0.00  0.00    +0.000 C 
BRANCH   6   5
ATOM      3  C   UNL     1       1.234  60.747   6.505  0.00  0.00    +0.000 A 
ATOM      4  C   UNL     1       0.804  60.214   7.713  0.00  0.00    +0.000 A 
ATOM      5  C   UNL     1      -0.341  60.771   8.250  0.00  0.00    +0.000 A 
ATOM     51  C   UNL     1      -0.734  62.031   7.832  0.00  0.00    +0.000 A 
ATOM     52  C   UNL     1      -0.431  62.472   6.560  0.00  0.00    +0.000 A 
ATOM     53  C   UNL     1       0.703  61.916   5.982  0.00  0.00    +0.000 A 
ATOM     54  O   UNL     1       1.397  62.587   4.977  0.00  0.00    +0.000 OA
BRANCH   3   2
ATOM      1  C   UNL     1       2.523  59.490   5.437  0.00  0.00    +0.000 C 
ATOM      2  O   UNL     1       2.049  59.976   5.674  0.00  0.00    +0.000 OA
ENDBRANCH   3   2
ENDBRANCH   6   5
ENDBRANCH   8   7
ENDBRANCH  10   8
BRANCH  11  12
ATOM     12  C   UNL     1      -0.524  61.237  12.331  0.00  0.00    +0.000 C 
ATOM     13  C   UNL     1       0.764  61.116  12.216  0.00  0.00    +0.000 C 
BRANCH  13  14
ATOM     14  C   UNL     1       1.589  61.560  11.112  0.00  0.00    +0.000 A 
ATOM     15  C   UNL     1       1.305  62.820  10.600  0.00  0.00    +0.000 A 
ATOM     16  C   UNL     1       2.101  63.412   9.632  0.00  0.00    +0.000 A 
ATOM     17  C   UNL     1       3.165  62.703   9.099  0.00  0.00    +0.000 A 
ATOM     18  O   UNL     1       3.810  63.136   7.940  0.00  0.00    +0.000 OA
ATOM     19  C   UNL     1       3.504  61.486   9.681  0.00  0.00    +0.000 A 
ATOM     22  C   UNL     1       2.728  60.936  10.684  0.00  0.00    +0.000 A 
BRANCH  19  20
ATOM     20  O   UNL     1       4.702  60.885   9.288  0.00  0.00    +0.000 OA
ATOM     21  C   UNL     1       4.742  59.731   8.466  0.00  0.00    +0.000 C 
ENDBRANCH  19  20
ENDBRANCH  13  14
ENDBRANCH  11  12
BRANCH  34  35
ATOM     35  C   UNL     1      -3.719  57.815  11.588  0.00  0.00    +0.000 C 
ATOM     36  O   UNL     1      -4.580  58.644  11.881  0.00  0.00    +0.000 OA
BRANCH  35  37
ATOM     37  C   UNL     1      -3.941  56.390  11.713  0.00  0.00    +0.000 C 
ATOM     38  C   UNL     1      -3.575  55.487  10.835  0.00  0.00    +0.000 C 
ATOM     39  O   UNL     1      -3.302  55.946   9.542  0.00  0.00    +0.000 OA
BRANCH  38  40
ATOM     40  C   UNL     1      -3.172  54.134  11.244  0.00  0.00    +0.000 C 
ATOM     41  C   UNL     1      -2.764  53.827  12.451  0.00  0.00    +0.000 C 
BRANCH  41  42
ATOM     42  C   UNL     1      -1.569  53.082  12.774  0.00  0.00    +0.000 A 
ATOM     43  C   UNL     1      -1.171  52.714  14.031  0.00  0.00    +0.000 A 
ATOM     44  C   UNL     1       0.140  52.331  14.257  0.00  0.00    +0.000 A 
ATOM     45  C   UNL     1       0.997  52.097  13.220  0.00  0.00    +0.000 A 
ATOM     46  O   UNL     1       2.372  51.944  13.362  0.00  0.00    +0.000 OA
ATOM     47  C   UNL     1       0.502  52.176  11.939  0.00  0.00    +0.000 A 
ATOM     50  C   UNL     1      -0.735  52.718  11.729  0.00  0.00    +0.000 A 
BRANCH  47  48
ATOM     48  O   UNL     1       1.147  51.614  10.844  0.00  0.00    +0.000 OA
ATOM     49  C   UNL     1       1.059  50.254  10.516  0.00  0.00    +0.000 C 
ENDBRANCH  47  48
ENDBRANCH  41  42
ENDBRANCH  38  40
ENDBRANCH  35  37
ENDBRANCH  34  35
TORSDOF 14
ENDMDL
MODEL 10
REMARK VINA RESULT:      -5.9     13.196     17.828
REMARK  Name = 
REMARK  14 active torsions:
REMARK  status: ('A' for Active; 'I' for Inactive)
REMARK    1  A    between atoms: O_2  and  C_3
REMARK    2  A    between atoms: C_5  and  C_6
REMARK    3  A    between atoms: C_7  and  C_8
REMARK    4  A    between atoms: C_8  and  C_10
REMARK    5  A    between atoms: C_11  and  C_12
REMARK    6  A    between atoms: C_13  and  C_14
REMARK    7  A    between atoms: C_19  and  O_20
REMARK    8  A    between atoms: C_24  and  C_25
REMARK    9  A    between atoms: C_30  and  O_31
REMARK   10  A    between atoms: C_34  and  C_35
REMARK   11  A    between atoms: C_35  and  C_37
REMARK   12  A    between atoms: C_38  and  C_40
REMARK   13  A    between atoms: C_41  and  C_42
REMARK   14  A    between atoms: C_47  and  O_48
REMARK                            x       y       z     vdW  Elec       q    Type
REMARK                         _______ _______ _______ _____ _____    ______ ____
ROOT
ATOM     10  C   UNL     1      -0.315  59.922  12.999  0.00  0.00    +0.000 C 
ATOM     11  C   UNL     1      -0.384  61.100  12.371  0.00  0.00    +0.000 C 
ATOM     23  O   UNL     1       0.806  61.599  12.758  0.00  0.00    +0.000 OA
ATOM     24  C   UNL     1       1.901  60.595  12.301  0.00  0.00    +0.000 C 
ATOM     34  C   UNL     1       0.733  59.355  11.906  0.00  0.00    +0.000 C 
ENDROOT
BRANCH  24  25
ATOM     25  C   UNL     1       1.843  61.194  10.780  0.00  0.00    +0.000 A 
ATOM     26  C   UNL     1       1.764  60.271   9.788  0.00  0.00    +0.000 A 
ATOM     27  C   UNL     1       1.719  60.800   8.500  0.00  0.00    +0.000 A 
ATOM     28  C   UNL     1       1.872  62.163   8.267  0.00  0.00    +0.000 A 
ATOM     29  O   UNL     1       1.154  62.818   7.257  0.00  0.00    +0.000 OA
ATOM     30  C   UNL     1       2.470  62.879   9.301  0.00  0.00    +0.000 A 
ATOM     33  C   UNL     1       2.556  62.335  10.580  0.00  0.00    +0.000 A 
BRANCH  30  31
ATOM     31  O   UNL     1       2.972  64.126   8.986  0.00  0.00    +0.000 OA
ATOM     32  C   UNL     1       2.802  65.279   9.765  0.00  0.00    +0.000 C 
ENDBRANCH  30  31
ENDBRANCH  24  25
BRANCH  10   8
ATOM      8  C   UNL     1      -1.439  59.022  13.247  0.00  0.00    +0.000 C 
ATOM      9  O   UNL     1      -1.823  58.806  14.437  0.00  0.00    +0.000 OA
BRANCH   8   7
ATOM      6  C   UNL     1      -2.387  58.298  11.100  0.00  0.00    +0.000 C 
ATOM      7  C   UNL     1      -2.518  58.888  12.261  0.00  0.00    +0.000 C 
BRANCH   6   5
ATOM      3  C   UNL     1      -2.022  59.449   7.622  0.00  0.00    +0.000 A 
ATOM      4  C   UNL     1      -1.680  59.324   8.962  0.00  0.00    +0.000 A 
ATOM      5  C   UNL     1      -2.697  58.940   9.815  0.00  0.00    +0.000 A 
ATOM     51  C   UNL     1      -4.010  59.113   9.416  0.00  0.00    +0.000 A 
ATOM     52  C   UNL     1      -4.346  59.068   8.077  0.00  0.00    +0.000 A 
ATOM     53  C   UNL     1      -3.339  59.429   7.190  0.00  0.00    +0.000 A 
ATOM     54  O   UNL     1      -3.643  59.906   5.917  0.00  0.00    +0.000 OA
BRANCH   3   2
ATOM      1  C   UNL     1      -0.666  59.381   6.030  0.00  0.00    +0.000 C 
ATOM      2  O   UNL     1      -1.020  59.356   6.654  0.00  0.00    +0.000 OA
ENDBRANCH   3   2
ENDBRANCH   6   5
ENDBRANCH   8   7
ENDBRANCH  10   8
BRANCH  11  12
ATOM     12  C   UNL     1      -1.589  61.891  12.071  0.00  0.00    +0.000 C 
ATOM     13  C   UNL     1      -1.654  62.724  11.077  0.00  0.00    +0.000 C 
BRANCH  13  14
ATOM     14  C   UNL     1      -2.600  62.706   9.981  0.00  0.00    +0.000 A 
ATOM     15  C   UNL     1      -3.941  62.598  10.329  0.00  0.00    +0.000 A 
ATOM     16  C   UNL     1      -4.952  62.699   9.385  0.00  0.00    +0.000 A 
ATOM     17  C   UNL     1      -4.622  62.833   8.047  0.00  0.00    +0.000 A 
ATOM     18  O   UNL     1      -5.579  62.653   7.048  0.00  0.00    +0.000 OA
ATOM     19  C   UNL     1      -3.287  63.038   7.714  0.00  0.00    +0.000 A 
ATOM     22  C   UNL     1      -2.297  62.988   8.678  0.00  0.00    +0.000 A 
BRANCH  19  20
ATOM     20  O   UNL     1      -2.989  63.390   6.395  0.00  0.00    +0.000 OA
ATOM     21  C   UNL     1      -2.925  64.737   5.961  0.00  0.00    +0.000 C 
ENDBRANCH  19  20
ENDBRANCH  13  14
ENDBRANCH  11  12
BRANCH  34  35
ATOM     35  C   UNL     1       1.368  58.290  12.942  0.00  0.00    +0.000 C 
ATOM     36  O   UNL     1       1.394  58.608  14.130  0.00  0.00    +0.000 OA
BRANCH  35  37
ATOM     37  C   UNL     1       2.299  57.340  12.371  0.00  0.00    +0.000 C 
ATOM     38  C   UNL     1       1.995  56.412  11.496  0.00  0.00    +0.000 C 
ATOM     39  O   UNL     1       0.642  56.071  11.392  0.00  0.00    +0.000 OA
BRANCH  38  40
ATOM     40  C   UNL     1       2.952  55.979  10.469  0.00  0.00    +0.000 C 
ATOM     41  C   UNL     1       4.227  55.777  10.697  0.00  0.00    +0.000 C 
BRANCH  41  42
ATOM     42  C   UNL     1       5.319  56.306   9.912  0.00  0.00    +0.000 A 
ATOM     43  C   UNL     1       6.493  55.659   9.637  0.00  0.00    +0.000 A 
ATOM     44  C   UNL     1       7.591  56.377   9.197  0.00  0.00    +0.000 A 
ATOM     45  C   UNL     1       7.476  57.684   8.816  0.00  0.00    +0.000 A 
ATOM     46  O   UNL     1       8.556  58.530   8.593  0.00  0.00    +0.000 OA
ATOM     47  C   UNL     1       6.221  58.249   8.808  0.00  0.00    +0.000 A 
ATOM     50  C   UNL     1       5.183  57.588   9.404  0.00  0.00    +0.000 A 
BRANCH  47  48
ATOM     48  O   UNL     1       5.921  59.412   8.109  0.00  0.00    +0.000 OA
ATOM     49  C   UNL     1       5.377  60.552   8.715  0.00  0.00    +0.000 C 
ENDBRANCH  47  48
ENDBRANCH  41  42
ENDBRANCH  38  40
ENDBRANCH  35  37
ENDBRANCH  34  35
TORSDOF 14
ENDMDL
