MODEL 1
REMARK VINA RESULT:      -7.0      0.000      0.000
REMARK  Name = 
REMARK  14 active torsions:
REMARK  status: ('A' for Active; 'I' for Inactive)
REMARK    1  A    between atoms: O_2  and  C_3
REMARK    2  A    between atoms: C_5  and  C_6
REMARK    3  A    between atoms: C_7  and  C_8
REMARK    4  A    between atoms: C_8  and  C_10
REMARK    5  A    between atoms: C_11  and  C_13
REMARK    6  A    between atoms: C_14  and  C_15
REMARK    7  A    between atoms: C_20  and  O_21
REMARK    8  A    between atoms: C_28  and  C_29
REMARK    9  A    between atoms: C_34  and  O_35
REMARK   10  A    between atoms: C_38  and  C_39
REMARK   11  A    between atoms: C_39  and  C_41
REMARK   12  A    between atoms: C_42  and  C_44
REMARK   13  A    between atoms: C_45  and  C_46
REMARK   14  A    between atoms: C_51  and  O_52
REMARK                            x       y       z     vdW  Elec       q    Type
REMARK                         _______ _______ _______ _____ _____    ______ ____
ROOT
ATOM      3  C   UNL     1       5.462  59.760   6.433  0.00  0.00    +0.000 A 
ATOM      4  C   UNL     1       4.542  58.731   6.421  0.00  0.00    +0.000 A 
ATOM      5  C   UNL     1       5.016  57.434   6.260  0.00  0.00    +0.000 A 
ATOM     24  C   UNL     1       6.247  57.264   5.632  0.00  0.00    +0.000 A 
ATOM     25  C   UNL     1       7.223  58.256   5.666  0.00  0.00    +0.000 A 
ATOM     26  C   UNL     1       6.712  59.535   5.864  0.00  0.00    +0.000 A 
ATOM     27  O   UNL     1       7.802  60.295   6.015  0.00  0.00    +0.000 OA
ATOM     28  C   UNL     1       8.909  59.838   5.063  0.00  0.00    +0.000 C 
ATOM     38  C   UNL     1       7.918  58.664   4.277  0.00  0.00    +0.000 C 
ENDROOT
BRANCH  28  29
ATOM     29  C   UNL     1       9.584  58.803   6.099  0.00  0.00    +0.000 A 
ATOM     30  C   UNL     1      10.959  58.927   5.879  0.00  0.00    +0.000 A 
ATOM     31  C   UNL     1      11.851  58.735   6.931  0.00  0.00    +0.000 A 
ATOM     32  C   UNL     1      11.367  57.942   7.965  0.00  0.00    +0.000 A 
ATOM     33  O   UNL     1      12.202  57.154   8.754  0.00  0.00    +0.000 OA
ATOM     34  C   UNL     1      10.005  57.994   8.239  0.00  0.00    +0.000 A 
ATOM     37  C   UNL     1       9.220  58.774   7.398  0.00  0.00    +0.000 A 
BRANCH  34  35
ATOM     35  O   UNL     1       9.490  56.980   9.048  0.00  0.00    +0.000 OA
ATOM     36  C   UNL     1       8.349  56.226   8.754  0.00  0.00    +0.000 C 
ENDBRANCH  34  35
ENDBRANCH  28  29
BRANCH   3   2
ATOM      1  C   UNL     1       4.332  61.432   7.538  0.00  0.00    +0.000 C 
ATOM      2  O   UNL     1       5.024  61.045   6.775  0.00  0.00    +0.000 OA
ENDBRANCH   3   2
BRANCH   5   6
ATOM      6  C   UNL     1       4.087  56.361   6.522  0.00  0.00    +0.000 C 
ATOM      7  C   UNL     1       3.759  55.483   5.589  0.00  0.00    +0.000 C 
BRANCH   7   8
ATOM      8  C   UNL     1       3.302  54.159   6.031  0.00  0.00    +0.000 C 
ATOM      9  O   UNL     1       3.365  53.916   7.275  0.00  0.00    +0.000 OA
BRANCH   8  10
ATOM     10  C   UNL     1       3.363  52.977   5.171  0.00  0.00    +0.000 C 
ATOM     11  C   UNL     1       2.705  53.079   4.013  0.00  0.00    +0.000 C 
ATOM     12  O   UNL     1       1.341  53.342   4.180  0.00  0.00    +0.000 OA
BRANCH  11  13
ATOM     13  C   UNL     1       3.152  52.398   2.804  0.00  0.00    +0.000 C 
ATOM     14  C   UNL     1       4.023  52.935   1.947  0.00  0.00    +0.000 C 
BRANCH  14  15
ATOM     15  C   UNL     1       4.989  52.026   1.313  0.00  0.00    +0.000 A 
ATOM     16  C   UNL     1       5.293  50.828   1.951  0.00  0.00    +0.000 A 
ATOM     17  C   UNL     1       6.489  50.166   1.701  0.00  0.00    +0.000 A 
ATOM     18  C   UNL     1       7.500  50.788   0.979  0.00  0.00    +0.000 A 
ATOM     19  O   UNL     1       8.826  50.435   1.252  0.00  0.00    +0.000 OA
ATOM     20  C   UNL     1       7.250  52.029   0.406  0.00  0.00    +0.000 A 
ATOM     23  C   UNL     1       5.943  52.471   0.412  0.00  0.00    +0.000 A 
BRANCH  20  21
ATOM     21  O   UNL     1       8.340  52.892   0.238  0.00  0.00    +0.000 OA
ATOM     22  C   UNL     1       8.202  54.301   0.410  0.00  0.00    +0.000 C 
ENDBRANCH  20  21
ENDBRANCH  14  15
ENDBRANCH  11  13
ENDBRANCH   8  10
ENDBRANCH   7   8
ENDBRANCH   5   6
BRANCH  38  39
ATOM     39  C   UNL     1       9.016  57.501   4.249  0.00  0.00    +0.000 C 
ATOM     40  O   UNL     1       8.852  56.510   4.977  0.00  0.00    +0.000 OA
BRANCH  39  41
ATOM     41  C   UNL     1       9.558  57.189   2.915  0.00  0.00    +0.000 C 
ATOM     42  C   UNL     1      10.794  56.732   2.804  0.00  0.00    +0.000 C 
ATOM     43  O   UNL     1      11.459  56.467   4.005  0.00  0.00    +0.000 OA
BRANCH  42  44
ATOM     44  C   UNL     1      11.631  56.834   1.637  0.00  0.00    +0.000 C 
ATOM     45  C   UNL     1      11.776  55.940   0.695  0.00  0.00    +0.000 C 
BRANCH  45  46
ATOM     46  C   UNL     1      11.758  56.277  -0.735  0.00  0.00    +0.000 A 
ATOM     47  C   UNL     1      11.794  57.598  -1.108  0.00  0.00    +0.000 A 
ATOM     48  C   UNL     1      11.079  58.121  -2.172  0.00  0.00    +0.000 A 
ATOM     49  C   UNL     1      10.574  57.217  -3.077  0.00  0.00    +0.000 A 
ATOM     50  O   UNL     1      10.410  57.505  -4.415  0.00  0.00    +0.000 OA
ATOM     51  C   UNL     1      10.316  55.922  -2.643  0.00  0.00    +0.000 A 
ATOM     54  C   UNL     1      11.005  55.432  -1.540  0.00  0.00    +0.000 A 
BRANCH  51  52
ATOM     52  O   UNL     1       9.919  54.934  -3.550  0.00  0.00    +0.000 OA
ATOM     53  C   UNL     1       9.503  53.666  -3.061  0.00  0.00    +0.000 C 
ENDBRANCH  51  52
ENDBRANCH  45  46
ENDBRANCH  42  44
ENDBRANCH  39  41
ENDBRANCH  38  39
TORSDOF 14
ENDMDL
MODEL 2
REMARK VINA RESULT:      -6.9     17.743     20.075
REMARK  Name = 
REMARK  14 active torsions:
REMARK  status: ('A' for Active; 'I' for Inactive)
REMARK    1  A    between atoms: O_2  and  C_3
REMARK    2  A    between atoms: C_5  and  C_6
REMARK    3  A    between atoms: C_7  and  C_8
REMARK    4  A    between atoms: C_8  and  C_10
REMARK    5  A    between atoms: C_11  and  C_13
REMARK    6  A    between atoms: C_14  and  C_15
REMARK    7  A    between atoms: C_20  and  O_21
REMARK    8  A    between atoms: C_28  and  C_29
REMARK    9  A    between atoms: C_34  and  O_35
REMARK   10  A    between atoms: C_38  and  C_39
REMARK   11  A    between atoms: C_39  and  C_41
REMARK   12  A    between atoms: C_42  and  C_44
REMARK   13  A    between atoms: C_45  and  C_46
REMARK   14  A    between atoms: C_51  and  O_52
REMARK                            x       y       z     vdW  Elec       q    Type
REMARK                         _______ _______ _______ _____ _____    ______ ____
ROOT
ATOM      3  C   UNL     1      19.794  65.562  14.850  0.00  0.00    +0.000 A 
ATOM      4  C   UNL     1      20.101  64.612  13.896  0.00  0.00    +0.000 A 
ATOM      5  C   UNL     1      20.639  65.049  12.691  0.00  0.00    +0.000 A 
ATOM     24  C   UNL     1      20.380  66.359  12.298  0.00  0.00    +0.000 A 
ATOM     25  C   UNL     1      20.119  67.359  13.231  0.00  0.00    +0.000 A 
ATOM     26  C   UNL     1      19.616  66.879  14.437  0.00  0.00    +0.000 A 
ATOM     27  O   UNL     1      19.583  67.961  15.223  0.00  0.00    +0.000 OA
ATOM     28  C   UNL     1      19.152  69.192  14.422  0.00  0.00    +0.000 C 
ATOM     38  C   UNL     1      18.840  68.296  12.980  0.00  0.00    +0.000 C 
ENDROOT
BRANCH  28  29
ATOM     29  C   UNL     1      20.646  69.634  14.008  0.00  0.00    +0.000 A 
ATOM     30  C   UNL     1      20.612  71.032  14.000  0.00  0.00    +0.000 A 
ATOM     31  C   UNL     1      21.754  71.758  14.330  0.00  0.00    +0.000 A 
ATOM     32  C   UNL     1      22.950  71.076  14.137  0.00  0.00    +0.000 A 
ATOM     33  O   UNL     1      24.138  71.731  13.819  0.00  0.00    +0.000 OA
ATOM     34  C   UNL     1      22.950  69.699  14.325  0.00  0.00    +0.000 A 
ATOM     37  C   UNL     1      21.728  69.100  14.610  0.00  0.00    +0.000 A 
BRANCH  34  35
ATOM     35  O   UNL     1      24.052  68.998  13.830  0.00  0.00    +0.000 OA
ATOM     36  C   UNL     1      24.008  68.090  12.768  0.00  0.00    +0.000 C 
ENDBRANCH  34  35
ENDBRANCH  28  29
BRANCH   3   2
ATOM      1  C   UNL     1      19.981  64.677  16.965  0.00  0.00    +0.000 C 
ATOM      2  O   UNL     1      19.427  65.131  16.130  0.00  0.00    +0.000 OA
ENDBRANCH   3   2
BRANCH   5   6
ATOM      6  C   UNL     1      21.202  64.042  11.824  0.00  0.00    +0.000 C 
ATOM      7  C   UNL     1      22.509  63.875  11.710  0.00  0.00    +0.000 C 
BRANCH   7   8
ATOM      8  C   UNL     1      22.994  62.550  11.302  0.00  0.00    +0.000 C 
ATOM      9  O   UNL     1      23.229  62.380  10.067  0.00  0.00    +0.000 OA
BRANCH   8  10
ATOM     10  C   UNL     1      22.663  61.329  12.038  0.00  0.00    +0.000 C 
ATOM     11  C   UNL     1      22.898  61.373  13.351  0.00  0.00    +0.000 C 
ATOM     12  O   UNL     1      24.237  61.637  13.660  0.00  0.00    +0.000 OA
BRANCH  11  13
ATOM     13  C   UNL     1      22.082  60.638  14.310  0.00  0.00    +0.000 C 
ATOM     14  C   UNL     1      21.852  61.071  15.551  0.00  0.00    +0.000 C 
BRANCH  14  15
ATOM     15  C   UNL     1      20.518  60.816  16.116  0.00  0.00    +0.000 A 
ATOM     16  C   UNL     1      19.408  61.341  15.463  0.00  0.00    +0.000 A 
ATOM     17  C   UNL     1      18.216  61.563  16.141  0.00  0.00    +0.000 A 
ATOM     18  C   UNL     1      18.167  61.473  17.527  0.00  0.00    +0.000 A 
ATOM     19  O   UNL     1      17.236  62.260  18.213  0.00  0.00    +0.000 OA
ATOM     20  C   UNL     1      19.296  61.035  18.212  0.00  0.00    +0.000 A 
ATOM     23  C   UNL     1      20.326  60.516  17.455  0.00  0.00    +0.000 A 
BRANCH  20  21
ATOM     21  O   UNL     1      19.478  61.503  19.518  0.00  0.00    +0.000 OA
ATOM     22  C   UNL     1      20.648  61.176  20.265  0.00  0.00    +0.000 C 
ENDBRANCH  20  21
ENDBRANCH  14  15
ENDBRANCH  11  13
ENDBRANCH   8  10
ENDBRANCH   7   8
ENDBRANCH   5   6
BRANCH  38  39
ATOM     39  C   UNL     1      19.537  69.330  11.979  0.00  0.00    +0.000 C 
ATOM     40  O   UNL     1      20.510  68.947  11.310  0.00  0.00    +0.000 OA
BRANCH  39  41
ATOM     41  C   UNL     1      18.609  70.211  11.247  0.00  0.00    +0.000 C 
ATOM     42  C   UNL     1      17.963  69.746  10.193  0.00  0.00    +0.000 C 
ATOM     43  O   UNL     1      18.131  68.384   9.923  0.00  0.00    +0.000 OA
BRANCH  42  44
ATOM     44  C   UNL     1      17.431  70.534   9.111  0.00  0.00    +0.000 C 
ATOM     45  C   UNL     1      17.503  71.832   8.978  0.00  0.00    +0.000 C 
BRANCH  45  46
ATOM     46  C   UNL     1      17.869  72.485   7.714  0.00  0.00    +0.000 A 
ATOM     47  C   UNL     1      16.934  72.568   6.712  0.00  0.00    +0.000 A 
ATOM     48  C   UNL     1      17.226  72.420   5.367  0.00  0.00    +0.000 A 
ATOM     49  C   UNL     1      18.552  72.518   5.012  0.00  0.00    +0.000 A 
ATOM     50  O   UNL     1      18.968  73.005   3.792  0.00  0.00    +0.000 OA
ATOM     51  C   UNL     1      19.515  72.211   5.965  0.00  0.00    +0.000 A 
ATOM     54  C   UNL     1      19.187  72.314   7.311  0.00  0.00    +0.000 A 
BRANCH  51  52
ATOM     52  O   UNL     1      20.873  72.412   5.694  0.00  0.00    +0.000 OA
ATOM     53  C   UNL     1      21.510  73.592   6.167  0.00  0.00    +0.000 C 
ENDBRANCH  51  52
ENDBRANCH  45  46
ENDBRANCH  42  44
ENDBRANCH  39  41
ENDBRANCH  38  39
TORSDOF 14
ENDMDL
MODEL 3
REMARK VINA RESULT:      -6.8     17.300     22.246
REMARK  Name = 
REMARK  14 active torsions:
REMARK  status: ('A' for Active; 'I' for Inactive)
REMARK    1  A    between atoms: O_2  and  C_3
REMARK    2  A    between atoms: C_5  and  C_6
REMARK    3  A    between atoms: C_7  and  C_8
REMARK    4  A    between atoms: C_8  and  C_10
REMARK    5  A    between atoms: C_11  and  C_13
REMARK    6  A    between atoms: C_14  and  C_15
REMARK    7  A    between atoms: C_20  and  O_21
REMARK    8  A    between atoms: C_28  and  C_29
REMARK    9  A    between atoms: C_34  and  O_35
REMARK   10  A    between atoms: C_38  and  C_39
REMARK   11  A    between atoms: C_39  and  C_41
REMARK   12  A    between atoms: C_42  and  C_44
REMARK   13  A    between atoms: C_45  and  C_46
REMARK   14  A    between atoms: C_51  and  O_52
REMARK                            x       y       z     vdW  Elec       q    Type
REMARK                         _______ _______ _______ _____ _____    ______ ____
ROOT
ATOM      3  C   UNL     1      19.471  65.006  14.433  0.00  0.00    +0.000 A 
ATOM      4  C   UNL     1      19.618  66.182  15.140  0.00  0.00    +0.000 A 
ATOM      5  C   UNL     1      20.307  66.136  16.347  0.00  0.00    +0.000 A 
ATOM     24  C   UNL     1      20.363  64.918  17.019  0.00  0.00    +0.000 A 
ATOM     25  C   UNL     1      20.272  63.707  16.338  0.00  0.00    +0.000 A 
ATOM     26  C   UNL     1      19.607  63.802  15.119  0.00  0.00    +0.000 A 
ATOM     27  O   UNL     1      19.765  62.591  14.574  0.00  0.00    +0.000 OA
ATOM     28  C   UNL     1      19.659  61.504  15.645  0.00  0.00    +0.000 C 
ATOM     38  C   UNL     1      19.244  62.611  16.902  0.00  0.00    +0.000 C 
ENDROOT
BRANCH  28  29
ATOM     29  C   UNL     1      21.235  61.470  15.984  0.00  0.00    +0.000 A 
ATOM     30  C   UNL     1      21.497  60.138  16.319  0.00  0.00    +0.000 A 
ATOM     31  C   UNL     1      22.745  59.584  16.042  0.00  0.00    +0.000 A 
ATOM     32  C   UNL     1      23.780  60.507  15.940  0.00  0.00    +0.000 A 
ATOM     33  O   UNL     1      25.096  60.190  16.268  0.00  0.00    +0.000 OA
ATOM     34  C   UNL     1      23.478  61.768  15.440  0.00  0.00    +0.000 A 
ATOM     37  C   UNL     1      22.142  62.034  15.159  0.00  0.00    +0.000 A 
BRANCH  34  35
ATOM     35  O   UNL     1      24.434  62.766  15.635  0.00  0.00    +0.000 OA
ATOM     36  C   UNL     1      24.416  63.695  16.681  0.00  0.00    +0.000 C 
ENDBRANCH  34  35
ENDBRANCH  28  29
BRANCH   3   2
ATOM      1  C   UNL     1      19.397  65.067  12.135  0.00  0.00    +0.000 C 
ATOM      2  O   UNL     1      18.945  65.065  13.138  0.00  0.00    +0.000 OA
ENDBRANCH   3   2
BRANCH   5   6
ATOM      6  C   UNL     1      20.688  67.399  16.931  0.00  0.00    +0.000 C 
ATOM      7  C   UNL     1      21.800  68.021  16.580  0.00  0.00    +0.000 C 
BRANCH   7   8
ATOM      8  C   UNL     1      21.849  69.479  16.750  0.00  0.00    +0.000 C 
ATOM      9  O   UNL     1      22.210  69.912  17.888  0.00  0.00    +0.000 OA
BRANCH   8  10
ATOM     10  C   UNL     1      20.995  70.391  15.989  0.00  0.00    +0.000 C 
ATOM     11  C   UNL     1      21.220  70.420  14.674  0.00  0.00    +0.000 C 
ATOM     12  O   UNL     1      22.531  70.787  14.350  0.00  0.00    +0.000 OA
BRANCH  11  13
ATOM     13  C   UNL     1      20.156  70.671  13.710  0.00  0.00    +0.000 C 
ATOM     14  C   UNL     1      20.040  69.998  12.564  0.00  0.00    +0.000 C 
BRANCH  14  15
ATOM     15  C   UNL     1      18.678  69.689  12.101  0.00  0.00    +0.000 A 
ATOM     16  C   UNL     1      18.097  68.490  12.498  0.00  0.00    +0.000 A 
ATOM     17  C   UNL     1      17.072  67.911  11.760  0.00  0.00    +0.000 A 
ATOM     18  C   UNL     1      16.751  68.398  10.498  0.00  0.00    +0.000 A 
ATOM     19  O   UNL     1      16.224  67.508   9.557  0.00  0.00    +0.000 OA
ATOM     20  C   UNL     1      17.386  69.547  10.041  0.00  0.00    +0.000 A 
ATOM     23  C   UNL     1      18.140  70.252  10.955  0.00  0.00    +0.000 A 
BRANCH  20  21
ATOM     21  O   UNL     1      17.549  69.685   8.658  0.00  0.00    +0.000 OA
ATOM     22  C   UNL     1      18.218  70.814   8.099  0.00  0.00    +0.000 C 
ENDBRANCH  20  21
ENDBRANCH  14  15
ENDBRANCH  11  13
ENDBRANCH   8  10
ENDBRANCH   7   8
ENDBRANCH   5   6
BRANCH  38  39
ATOM     39  C   UNL     1      20.206  61.981  18.013  0.00  0.00    +0.000 C 
ATOM     40  O   UNL     1      21.112  62.686  18.485  0.00  0.00    +0.000 OA
BRANCH  39  41
ATOM     41  C   UNL     1      19.536  61.117  19.001  0.00  0.00    +0.000 C 
ATOM     42  C   UNL     1      18.768  61.662  19.930  0.00  0.00    +0.000 C 
ATOM     43  O   UNL     1      18.560  63.041  19.821  0.00  0.00    +0.000 OA
BRANCH  42  44
ATOM     44  C   UNL     1      18.447  61.082  21.208  0.00  0.00    +0.000 C 
ATOM     45  C   UNL     1      19.019  61.346  22.354  0.00  0.00    +0.000 C 
BRANCH  45  46
ATOM     46  C   UNL     1      18.257  61.580  23.589  0.00  0.00    +0.000 A 
ATOM     47  C   UNL     1      18.934  61.920  24.734  0.00  0.00    +0.000 A 
ATOM     48  C   UNL     1      18.594  61.466  25.997  0.00  0.00    +0.000 A 
ATOM     49  C   UNL     1      17.340  60.918  26.136  0.00  0.00    +0.000 A 
ATOM     50  O   UNL     1      16.615  60.990  27.306  0.00  0.00    +0.000 OA
ATOM     51  C   UNL     1      16.735  60.360  25.017  0.00  0.00    +0.000 A 
ATOM     54  C   UNL     1      17.127  60.791  23.755  0.00  0.00    +0.000 A 
BRANCH  51  52
ATOM     52  O   UNL     1      15.415  59.902  25.077  0.00  0.00    +0.000 OA
ATOM     53  C   UNL     1      14.351  60.806  24.806  0.00  0.00    +0.000 C 
ENDBRANCH  51  52
ENDBRANCH  45  46
ENDBRANCH  42  44
ENDBRANCH  39  41
ENDBRANCH  38  39
TORSDOF 14
ENDMDL
MODEL 4
REMARK VINA RESULT:      -6.7     17.117     22.555
REMARK  Name = 
REMARK  14 active torsions:
REMARK  status: ('A' for Active; 'I' for Inactive)
REMARK    1  A    between atoms: O_2  and  C_3
REMARK    2  A    between atoms: C_5  and  C_6
REMARK    3  A    between atoms: C_7  and  C_8
REMARK    4  A    between atoms: C_8  and  C_10
REMARK    5  A    between atoms: C_11  and  C_13
REMARK    6  A    between atoms: C_14  and  C_15
REMARK    7  A    between atoms: C_20  and  O_21
REMARK    8  A    between atoms: C_28  and  C_29
REMARK    9  A    between atoms: C_34  and  O_35
REMARK   10  A    between atoms: C_38  and  C_39
REMARK   11  A    between atoms: C_39  and  C_41
REMARK   12  A    between atoms: C_42  and  C_44
REMARK   13  A    between atoms: C_45  and  C_46
REMARK   14  A    between atoms: C_51  and  O_52
REMARK                            x       y       z     vdW  Elec       q    Type
REMARK                         _______ _______ _______ _____ _____    ______ ____
ROOT
ATOM      3  C   UNL     1      14.330  67.398 -15.107  0.00  0.00    +0.000 A 
ATOM      4  C   UNL     1      13.720  67.338 -16.344  0.00  0.00    +0.000 A 
ATOM      5  C   UNL     1      13.068  66.161 -16.693  0.00  0.00    +0.000 A 
ATOM     24  C   UNL     1      13.467  64.985 -16.066  0.00  0.00    +0.000 A 
ATOM     25  C   UNL     1      14.038  64.995 -14.796  0.00  0.00    +0.000 A 
ATOM     26  C   UNL     1      14.649  66.202 -14.470  0.00  0.00    +0.000 A 
ATOM     27  O   UNL     1      14.986  66.053 -13.184  0.00  0.00    +0.000 OA
ATOM     28  C   UNL     1      15.472  64.626 -12.921  0.00  0.00    +0.000 C 
ATOM     38  C   UNL     1      15.392  64.161 -14.582  0.00  0.00    +0.000 C 
ENDROOT
BRANCH  28  29
ATOM     29  C   UNL     1      14.022  64.041 -12.527  0.00  0.00    +0.000 A 
ATOM     30  C   UNL     1      14.284  63.075 -11.551  0.00  0.00    +0.000 A 
ATOM     31  C   UNL     1      13.350  62.832 -10.546  0.00  0.00    +0.000 A 
ATOM     32  C   UNL     1      12.044  63.176 -10.872  0.00  0.00    +0.000 A 
ATOM     33  O   UNL     1      10.942  62.512 -10.337  0.00  0.00    +0.000 OA
ATOM     34  C   UNL     1      11.850  64.258 -11.723  0.00  0.00    +0.000 A 
ATOM     37  C   UNL     1      12.988  64.861 -12.248  0.00  0.00    +0.000 A 
BRANCH  34  35
ATOM     35  O   UNL     1      10.580  64.395 -12.286  0.00  0.00    +0.000 OA
ATOM     36  C   UNL     1      10.306  65.061 -13.485  0.00  0.00    +0.000 C 
ENDBRANCH  34  35
ENDBRANCH  28  29
BRANCH   3   2
ATOM      1  C   UNL     1      14.395  69.461 -14.091  0.00  0.00    +0.000 C 
ATOM      2  O   UNL     1      14.829  68.629 -14.666  0.00  0.00    +0.000 OA
ENDBRANCH   3   2
BRANCH   5   6
ATOM      6  C   UNL     1      12.213  66.208 -17.855  0.00  0.00    +0.000 C 
ATOM      7  C   UNL     1      12.701  66.379 -19.072  0.00  0.00    +0.000 C 
BRANCH   7   8
ATOM      8  C   UNL     1      11.915  65.866 -20.201  0.00  0.00    +0.000 C 
ATOM      9  O   UNL     1      10.886  66.531 -20.533  0.00  0.00    +0.000 OA
BRANCH   8  10
ATOM     10  C   UNL     1      11.864  64.445 -20.545  0.00  0.00    +0.000 C 
ATOM     11  C   UNL     1      13.039  63.890 -20.854  0.00  0.00    +0.000 C 
ATOM     12  O   UNL     1      13.668  64.510 -21.940  0.00  0.00    +0.000 OA
BRANCH  11  13
ATOM     13  C   UNL     1      13.337  62.493 -20.566  0.00  0.00    +0.000 C 
ATOM     14  C   UNL     1      13.721  62.065 -19.362  0.00  0.00    +0.000 C 
BRANCH  14  15
ATOM     15  C   UNL     1      13.229  60.749 -18.928  0.00  0.00    +0.000 A 
ATOM     16  C   UNL     1      12.979  59.781 -19.894  0.00  0.00    +0.000 A 
ATOM     17  C   UNL     1      12.097  58.735 -19.650  0.00  0.00    +0.000 A 
ATOM     18  C   UNL     1      11.282  58.750 -18.524  0.00  0.00    +0.000 A 
ATOM     19  O   UNL     1      10.042  58.105 -18.592  0.00  0.00    +0.000 OA
ATOM     20  C   UNL     1      11.452  59.761 -17.585  0.00  0.00    +0.000 A 
ATOM     23  C   UNL     1      12.563  60.567 -17.727  0.00  0.00    +0.000 A 
BRANCH  20  21
ATOM     21  O   UNL     1      10.331  60.142 -16.839  0.00  0.00    +0.000 OA
ATOM     22  C   UNL     1      10.233  59.846 -15.447  0.00  0.00    +0.000 C 
ENDBRANCH  20  21
ENDBRANCH  14  15
ENDBRANCH  11  13
ENDBRANCH   8  10
ENDBRANCH   7   8
ENDBRANCH   5   6
BRANCH  38  39
ATOM     39  C   UNL     1      14.716  62.734 -14.330  0.00  0.00    +0.000 C 
ATOM     40  O   UNL     1      13.541  62.560 -14.690  0.00  0.00    +0.000 OA
BRANCH  39  41
ATOM     41  C   UNL     1      15.598  61.577 -14.564  0.00  0.00    +0.000 C 
ATOM     42  C   UNL     1      16.125  61.390 -15.761  0.00  0.00    +0.000 C 
ATOM     43  O   UNL     1      15.887  62.399 -16.700  0.00  0.00    +0.000 OA
BRANCH  42  44
ATOM     44  C   UNL     1      16.577  60.133 -16.300  0.00  0.00    +0.000 C 
ATOM     45  C   UNL     1      15.833  59.176 -16.787  0.00  0.00    +0.000 C 
BRANCH  45  46
ATOM     46  C   UNL     1      16.146  58.485 -18.046  0.00  0.00    +0.000 A 
ATOM     47  C   UNL     1      16.753  57.255 -17.998  0.00  0.00    +0.000 A 
ATOM     48  C   UNL     1      17.730  56.839 -18.886  0.00  0.00    +0.000 A 
ATOM     49  C   UNL     1      17.854  57.566 -20.048  0.00  0.00    +0.000 A 
ATOM     50  O   UNL     1      18.264  57.011 -21.240  0.00  0.00    +0.000 OA
ATOM     51  C   UNL     1      17.448  58.895 -20.041  0.00  0.00    +0.000 A 
ATOM     54  C   UNL     1      16.505  59.307 -19.107  0.00  0.00    +0.000 A 
BRANCH  51  52
ATOM     52  O   UNL     1      17.439  59.641 -21.225  0.00  0.00    +0.000 OA
ATOM     53  C   UNL     1      16.195  60.036 -21.789  0.00  0.00    +0.000 C 
ENDBRANCH  51  52
ENDBRANCH  45  46
ENDBRANCH  42  44
ENDBRANCH  39  41
ENDBRANCH  38  39
TORSDOF 14
ENDMDL
MODEL 5
REMARK VINA RESULT:      -6.7     16.470     22.692
REMARK  Name = 
REMARK  14 active torsions:
REMARK  status: ('A' for Active; 'I' for Inactive)
REMARK    1  A    between atoms: O_2  and  C_3
REMARK    2  A    between atoms: C_5  and  C_6
REMARK    3  A    between atoms: C_7  and  C_8
REMARK    4  A    between atoms: C_8  and  C_10
REMARK    5  A    between atoms: C_11  and  C_13
REMARK    6  A    between atoms: C_14  and  C_15
REMARK    7  A    between atoms: C_20  and  O_21
REMARK    8  A    between atoms: C_28  and  C_29
REMARK    9  A    between atoms: C_34  and  O_35
REMARK   10  A    between atoms: C_38  and  C_39
REMARK   11  A    between atoms: C_39  and  C_41
REMARK   12  A    between atoms: C_42  and  C_44
REMARK   13  A    between atoms: C_45  and  C_46
REMARK   14  A    between atoms: C_51  and  O_52
REMARK                            x       y       z     vdW  Elec       q    Type
REMARK                         _______ _______ _______ _____ _____    ______ ____
ROOT
ATOM      3  C   UNL     1      23.968  61.855  17.412  0.00  0.00    +0.000 A 
ATOM      4  C   UNL     1      24.513  62.782  18.278  0.00  0.00    +0.000 A 
ATOM      5  C   UNL     1      23.667  63.739  18.826  0.00  0.00    +0.000 A 
ATOM     24  C   UNL     1      22.498  64.047  18.137  0.00  0.00    +0.000 A 
ATOM     25  C   UNL     1      21.886  63.122  17.295  0.00  0.00    +0.000 A 
ATOM     26  C   UNL     1      22.759  62.160  16.795  0.00  0.00    +0.000 A 
ATOM     27  O   UNL     1      21.957  61.304  16.153  0.00  0.00    +0.000 OA
ATOM     28  C   UNL     1      20.839  62.057  15.429  0.00  0.00    +0.000 C 
ATOM     38  C   UNL     1      21.465  63.616  15.826  0.00  0.00    +0.000 C 
ENDROOT
BRANCH  28  29
ATOM     29  C   UNL     1      19.794  61.993  16.655  0.00  0.00    +0.000 A 
ATOM     30  C   UNL     1      18.535  62.041  16.050  0.00  0.00    +0.000 A 
ATOM     31  C   UNL     1      17.455  61.386  16.638  0.00  0.00    +0.000 A 
ATOM     32  C   UNL     1      17.577  61.182  18.008  0.00  0.00    +0.000 A 
ATOM     33  O   UNL     1      16.472  61.126  18.854  0.00  0.00    +0.000 OA
ATOM     34  C   UNL     1      18.851  60.974  18.522  0.00  0.00    +0.000 A 
ATOM     37  C   UNL     1      19.916  61.072  17.633  0.00  0.00    +0.000 A 
BRANCH  34  35
ATOM     35  O   UNL     1      18.995  61.086  19.906  0.00  0.00    +0.000 OA
ATOM     36  C   UNL     1      19.379  62.251  20.577  0.00  0.00    +0.000 C 
ENDBRANCH  34  35
ENDBRANCH  28  29
BRANCH   3   2
ATOM      1  C   UNL     1      25.547  60.184  17.486  0.00  0.00    +0.000 C 
ATOM      2  O   UNL     1      24.762  60.780  16.997  0.00  0.00    +0.000 OA
ENDBRANCH   3   2
BRANCH   5   6
ATOM      6  C   UNL     1      24.186  64.518  19.925  0.00  0.00    +0.000 C 
ATOM      7  C   UNL     1      25.429  64.966  19.933  0.00  0.00    +0.000 C 
BRANCH   7   8
ATOM      8  C   UNL     1      25.717  66.165  20.732  0.00  0.00    +0.000 C 
ATOM      9  O   UNL     1      26.219  65.980  21.883  0.00  0.00    +0.000 OA
BRANCH   8  10
ATOM     10  C   UNL     1      24.964  67.410  20.584  0.00  0.00    +0.000 C 
ATOM     11  C   UNL     1      25.536  68.334  19.808  0.00  0.00    +0.000 C 
ATOM     12  O   UNL     1      26.803  68.721  20.260  0.00  0.00    +0.000 OA
BRANCH  11  13
ATOM     13  C   UNL     1      24.754  69.268  19.008  0.00  0.00    +0.000 C 
ATOM     14  C   UNL     1      24.747  69.255  17.674  0.00  0.00    +0.000 C 
BRANCH  14  15
ATOM     15  C   UNL     1      23.473  69.561  17.005  0.00  0.00    +0.000 A 
ATOM     16  C   UNL     1      23.083  68.775  15.927  0.00  0.00    +0.000 A 
ATOM     17  C   UNL     1      22.195  69.256  14.973  0.00  0.00    +0.000 A 
ATOM     18  C   UNL     1      21.846  70.602  14.951  0.00  0.00    +0.000 A 
ATOM     19  O   UNL     1      21.509  71.181  13.723  0.00  0.00    +0.000 OA
ATOM     20  C   UNL     1      22.300  71.429  15.972  0.00  0.00    +0.000 A 
ATOM     23  C   UNL     1      22.893  70.819  17.057  0.00  0.00    +0.000 A 
BRANCH  20  21
ATOM     21  O   UNL     1      22.491  72.782  15.666  0.00  0.00    +0.000 OA
ATOM     22  C   UNL     1      23.793  73.366  15.674  0.00  0.00    +0.000 C 
ENDBRANCH  20  21
ENDBRANCH  14  15
ENDBRANCH  11  13
ENDBRANCH   8  10
ENDBRANCH   7   8
ENDBRANCH   5   6
BRANCH  38  39
ATOM     39  C   UNL     1      20.061  64.270  16.225  0.00  0.00    +0.000 C 
ATOM     40  O   UNL     1      19.884  64.628  17.401  0.00  0.00    +0.000 OA
BRANCH  39  41
ATOM     41  C   UNL     1      19.494  65.188  15.222  0.00  0.00    +0.000 C 
ATOM     42  C   UNL     1      19.585  66.493  15.406  0.00  0.00    +0.000 C 
ATOM     43  O   UNL     1      20.335  66.905  16.512  0.00  0.00    +0.000 OA
BRANCH  42  44
ATOM     44  C   UNL     1      18.715  67.490  14.838  0.00  0.00    +0.000 C 
ATOM     45  C   UNL     1      18.787  68.002  13.637  0.00  0.00    +0.000 C 
BRANCH  45  46
ATOM     46  C   UNL     1      17.612  68.176  12.773  0.00  0.00    +0.000 A 
ATOM     47  C   UNL     1      16.624  67.222  12.791  0.00  0.00    +0.000 A 
ATOM     48  C   UNL     1      15.933  66.803  11.667  0.00  0.00    +0.000 A 
ATOM     49  C   UNL     1      16.020  67.609  10.556  0.00  0.00    +0.000 A 
ATOM     50  O   UNL     1      15.004  67.727   9.632  0.00  0.00    +0.000 OA
ATOM     51  C   UNL     1      17.141  68.419  10.414  0.00  0.00    +0.000 A 
ATOM     54  C   UNL     1      17.854  68.786  11.549  0.00  0.00    +0.000 A 
BRANCH  51  52
ATOM     52  O   UNL     1      17.221  69.345   9.368  0.00  0.00    +0.000 OA
ATOM     53  C   UNL     1      17.808  70.617   9.607  0.00  0.00    +0.000 C 
ENDBRANCH  51  52
ENDBRANCH  45  46
ENDBRANCH  42  44
ENDBRANCH  39  41
ENDBRANCH  38  39
TORSDOF 14
ENDMDL
MODEL 6
REMARK VINA RESULT:      -6.7     20.932     28.303
REMARK  Name = 
REMARK  14 active torsions:
REMARK  status: ('A' for Active; 'I' for Inactive)
REMARK    1  A    between atoms: O_2  and  C_3
REMARK    2  A    between atoms: C_5  and  C_6
REMARK    3  A    between atoms: C_7  and  C_8
REMARK    4  A    between atoms: C_8  and  C_10
REMARK    5  A    between atoms: C_11  and  C_13
REMARK    6  A    between atoms: C_14  and  C_15
REMARK    7  A    between atoms: C_20  and  O_21
REMARK    8  A    between atoms: C_28  and  C_29
REMARK    9  A    between atoms: C_34  and  O_35
REMARK   10  A    between atoms: C_38  and  C_39
REMARK   11  A    between atoms: C_39  and  C_41
REMARK   12  A    between atoms: C_42  and  C_44
REMARK   13  A    between atoms: C_45  and  C_46
REMARK   14  A    between atoms: C_51  and  O_52
REMARK                            x       y       z     vdW  Elec       q    Type
REMARK                         _______ _______ _______ _____ _____    ______ ____
ROOT
ATOM      3  C   UNL     1       5.402  38.856 -19.797  0.00  0.00    +0.000 A 
ATOM      4  C   UNL     1       6.005  39.974 -19.257  0.00  0.00    +0.000 A 
ATOM      5  C   UNL     1       7.142  39.791 -18.480  0.00  0.00    +0.000 A 
ATOM     24  C   UNL     1       7.323  38.552 -17.872  0.00  0.00    +0.000 A 
ATOM     25  C   UNL     1       6.777  37.391 -18.412  0.00  0.00    +0.000 A 
ATOM     26  C   UNL     1       5.662  37.619 -19.213  0.00  0.00    +0.000 A 
ATOM     27  O   UNL     1       5.397  36.420 -19.741  0.00  0.00    +0.000 OA
ATOM     28  C   UNL     1       5.629  35.316 -18.707  0.00  0.00    +0.000 C 
ATOM     38  C   UNL     1       5.966  36.420 -17.424  0.00  0.00    +0.000 C 
ENDROOT
BRANCH  28  29
ATOM     29  C   UNL     1       7.171  35.061 -19.101  0.00  0.00    +0.000 A 
ATOM     30  C   UNL     1       7.378  33.700 -18.858  0.00  0.00    +0.000 A 
ATOM     31  C   UNL     1       8.288  32.986 -19.634  0.00  0.00    +0.000 A 
ATOM     32  C   UNL     1       9.280  33.760 -20.224  0.00  0.00    +0.000 A 
ATOM     33  O   UNL     1      10.551  33.260 -20.500  0.00  0.00    +0.000 OA
ATOM     34  C   UNL     1       8.955  35.060 -20.594  0.00  0.00    +0.000 A 
ATOM     37  C   UNL     1       7.682  35.511 -20.265  0.00  0.00    +0.000 A 
BRANCH  34  35
ATOM     35  O   UNL     1      10.021  35.914 -20.886  0.00  0.00    +0.000 OA
ATOM     36  C   UNL     1       9.951  37.311 -20.872  0.00  0.00    +0.000 C 
ENDBRANCH  34  35
ENDBRANCH  28  29
BRANCH   3   2
ATOM      1  C   UNL     1       3.865  39.921 -21.137  0.00  0.00    +0.000 C 
ATOM      2  O   UNL     1       4.371  39.034 -20.727  0.00  0.00    +0.000 OA
ENDBRANCH   3   2
BRANCH   5   6
ATOM      6  C   UNL     1       7.909  40.970 -18.155  0.00  0.00    +0.000 C 
ATOM      7  C   UNL     1       7.377  42.180 -18.199  0.00  0.00    +0.000 C 
BRANCH   7   8
ATOM      8  C   UNL     1       7.978  43.219 -17.354  0.00  0.00    +0.000 C 
ATOM      9  O   UNL     1       9.242  43.325 -17.385  0.00  0.00    +0.000 OA
BRANCH   8  10
ATOM     10  C   UNL     1       7.353  43.687 -16.116  0.00  0.00    +0.000 C 
ATOM     11  C   UNL     1       7.972  43.322 -14.991  0.00  0.00    +0.000 C 
ATOM     12  O   UNL     1       8.076  41.934 -14.848  0.00  0.00    +0.000 OA
BRANCH  11  13
ATOM     13  C   UNL     1       7.968  44.158 -13.797  0.00  0.00    +0.000 C 
ATOM     14  C   UNL     1       8.453  45.401 -13.777  0.00  0.00    +0.000 C 
BRANCH  14  15
ATOM     15  C   UNL     1       7.744  46.386 -12.948  0.00  0.00    +0.000 A 
ATOM     16  C   UNL     1       7.001  45.931 -11.864  0.00  0.00    +0.000 A 
ATOM     17  C   UNL     1       5.957  46.685 -11.342  0.00  0.00    +0.000 A 
ATOM     18  C   UNL     1       5.489  47.804 -12.022  0.00  0.00    +0.000 A 
ATOM     19  O   UNL     1       4.145  48.160 -11.871  0.00  0.00    +0.000 OA
ATOM     20  C   UNL     1       6.163  48.227 -13.162  0.00  0.00    +0.000 A 
ATOM     23  C   UNL     1       7.379  47.634 -13.428  0.00  0.00    +0.000 A 
BRANCH  20  21
ATOM     21  O   UNL     1       5.416  48.894 -14.140  0.00  0.00    +0.000 OA
ATOM     22  C   UNL     1       4.778  48.182 -15.199  0.00  0.00    +0.000 C 
ENDBRANCH  20  21
ENDBRANCH  14  15
ENDBRANCH  11  13
ENDBRANCH   8  10
ENDBRANCH   7   8
ENDBRANCH   5   6
BRANCH  38  39
ATOM     39  C   UNL     1       7.224  35.626 -16.838  0.00  0.00    +0.000 C 
ATOM     40  O   UNL     1       8.328  36.194 -16.816  0.00  0.00    +0.000 OA
BRANCH  39  41
ATOM     41  C   UNL     1       6.944  34.803 -15.649  0.00  0.00    +0.000 C 
ATOM     42  C   UNL     1       6.752  35.389 -14.480  0.00  0.00    +0.000 C 
ATOM     43  O   UNL     1       6.716  36.788 -14.495  0.00  0.00    +0.000 OA
BRANCH  42  44
ATOM     44  C   UNL     1       6.950  34.785 -13.188  0.00  0.00    +0.000 C 
ATOM     45  C   UNL     1       6.024  34.462 -12.324  0.00  0.00    +0.000 C 
BRANCH  45  46
ATOM     46  C   UNL     1       6.007  33.173 -11.618  0.00  0.00    +0.000 A 
ATOM     47  C   UNL     1       6.515  32.063 -12.246  0.00  0.00    +0.000 A 
ATOM     48  C   UNL     1       5.964  30.797 -12.146  0.00  0.00    +0.000 A 
ATOM     49  C   UNL     1       5.070  30.596 -11.120  0.00  0.00    +0.000 A 
ATOM     50  O   UNL     1       4.909  29.379 -10.493  0.00  0.00    +0.000 OA
ATOM     51  C   UNL     1       4.373  31.692 -10.627  0.00  0.00    +0.000 A 
ATOM     54  C   UNL     1       4.917  32.961 -10.784  0.00  0.00    +0.000 A 
BRANCH  51  52
ATOM     52  O   UNL     1       3.545  31.563  -9.507  0.00  0.00    +0.000 OA
ATOM     53  C   UNL     1       3.717  32.449  -8.408  0.00  0.00    +0.000 C 
ENDBRANCH  51  52
ENDBRANCH  45  46
ENDBRANCH  42  44
ENDBRANCH  39  41
ENDBRANCH  38  39
TORSDOF 14
ENDMDL
MODEL 7
REMARK VINA RESULT:      -6.7     30.585     36.439
REMARK  Name = 
REMARK  14 active torsions:
REMARK  status: ('A' for Active; 'I' for Inactive)
REMARK    1  A    between atoms: O_2  and  C_3
REMARK    2  A    between atoms: C_5  and  C_6
REMARK    3  A    between atoms: C_7  and  C_8
REMARK    4  A    between atoms: C_8  and  C_10
REMARK    5  A    between atoms: C_11  and  C_13
REMARK    6  A    between atoms: C_14  and  C_15
REMARK    7  A    between atoms: C_20  and  O_21
REMARK    8  A    between atoms: C_28  and  C_29
REMARK    9  A    between atoms: C_34  and  O_35
REMARK   10  A    between atoms: C_38  and  C_39
REMARK   11  A    between atoms: C_39  and  C_41
REMARK   12  A    between atoms: C_42  and  C_44
REMARK   13  A    between atoms: C_45  and  C_46
REMARK   14  A    between atoms: C_51  and  O_52
REMARK                            x       y       z     vdW  Elec       q    Type
REMARK                         _______ _______ _______ _____ _____    ______ ____
ROOT
ATOM      3  C   UNL     1       6.105  79.726  34.679  0.00  0.00    +0.000 A 
ATOM      4  C   UNL     1       5.587  79.904  33.411  0.00  0.00    +0.000 A 
ATOM      5  C   UNL     1       6.259  79.320  32.344  0.00  0.00    +0.000 A 
ATOM     24  C   UNL     1       7.614  79.044  32.500  0.00  0.00    +0.000 A 
ATOM     25  C   UNL     1       8.168  78.806  33.755  0.00  0.00    +0.000 A 
ATOM     26  C   UNL     1       7.447  79.376  34.800  0.00  0.00    +0.000 A 
ATOM     27  O   UNL     1       8.050  78.907  35.898  0.00  0.00    +0.000 OA
ATOM     28  C   UNL     1       9.565  78.850  35.694  0.00  0.00    +0.000 C 
ATOM     38  C   UNL     1       9.508  79.602  34.141  0.00  0.00    +0.000 C 
ENDROOT
BRANCH  28  29
ATOM     29  C   UNL     1       9.585  77.338  35.132  0.00  0.00    +0.000 A 
ATOM     30  C   UNL     1      10.775  76.794  35.624  0.00  0.00    +0.000 A 
ATOM     31  C   UNL     1      10.849  75.434  35.918  0.00  0.00    +0.000 A 
ATOM     32  C   UNL     1       9.938  74.642  35.229  0.00  0.00    +0.000 A 
ATOM     33  O   UNL     1      10.203  73.315  34.900  0.00  0.00    +0.000 OA
ATOM     34  C   UNL     1       8.702  75.197  34.916  0.00  0.00    +0.000 A 
ATOM     37  C   UNL     1       8.508  76.534  35.244  0.00  0.00    +0.000 A 
BRANCH  34  35
ATOM     35  O   UNL     1       7.932  74.519  33.969  0.00  0.00    +0.000 OA
ATOM     36  C   UNL     1       7.754  74.930  32.644  0.00  0.00    +0.000 C 
ENDBRANCH  34  35
ENDBRANCH  28  29
BRANCH   3   2
ATOM      1  C   UNL     1       4.386  80.674  35.878  0.00  0.00    +0.000 C 
ATOM      2  O   UNL     1       5.347  80.148  35.777  0.00  0.00    +0.000 OA
ENDBRANCH   3   2
BRANCH   5   6
ATOM      6  C   UNL     1       5.567  79.281  31.078  0.00  0.00    +0.000 C 
ATOM      7  C   UNL     1       4.886  80.320  30.626  0.00  0.00    +0.000 C 
BRANCH   7   8
ATOM      8  C   UNL     1       4.704  80.437  29.174  0.00  0.00    +0.000 C 
ATOM      9  O   UNL     1       4.699  79.356  28.507  0.00  0.00    +0.000 OA
BRANCH   8  10
ATOM     10  C   UNL     1       5.116  81.621  28.420  0.00  0.00    +0.000 C 
ATOM     11  C   UNL     1       6.250  81.490  27.727  0.00  0.00    +0.000 C 
ATOM     12  O   UNL     1       7.349  81.164  28.530  0.00  0.00    +0.000 OA
BRANCH  11  13
ATOM     13  C   UNL     1       6.476  82.190  26.469  0.00  0.00    +0.000 C 
ATOM     14  C   UNL     1       7.500  83.022  26.273  0.00  0.00    +0.000 C 
BRANCH  14  15
ATOM     15  C   UNL     1       8.121  83.023  24.940  0.00  0.00    +0.000 A 
ATOM     16  C   UNL     1       8.139  84.209  24.216  0.00  0.00    +0.000 A 
ATOM     17  C   UNL     1       8.252  84.202  22.830  0.00  0.00    +0.000 A 
ATOM     18  C   UNL     1       8.131  83.013  22.121  0.00  0.00    +0.000 A 
ATOM     19  O   UNL     1       7.631  83.065  20.815  0.00  0.00    +0.000 OA
ATOM     20  C   UNL     1       8.021  81.819  22.825  0.00  0.00    +0.000 A 
ATOM     23  C   UNL     1       8.252  81.869  24.184  0.00  0.00    +0.000 A 
BRANCH  20  21
ATOM     21  O   UNL     1       7.317  80.774  22.215  0.00  0.00    +0.000 OA
ATOM     22  C   UNL     1       7.970  79.567  21.827  0.00  0.00    +0.000 C 
ENDBRANCH  20  21
ENDBRANCH  14  15
ENDBRANCH  11  13
ENDBRANCH   8  10
ENDBRANCH   7   8
ENDBRANCH   5   6
BRANCH  38  39
ATOM     39  C   UNL     1      10.545  78.613  33.431  0.00  0.00    +0.000 C 
ATOM     40  O   UNL     1      10.118  77.806  32.590  0.00  0.00    +0.000 OA
BRANCH  39  41
ATOM     41  C   UNL     1      11.844  79.217  33.084  0.00  0.00    +0.000 C 
ATOM     42  C   UNL     1      12.871  78.435  32.798  0.00  0.00    +0.000 C 
ATOM     43  O   UNL     1      12.598  77.065  32.734  0.00  0.00    +0.000 OA
BRANCH  42  44
ATOM     44  C   UNL     1      14.261  78.788  32.917  0.00  0.00    +0.000 C 
ATOM     45  C   UNL     1      15.273  78.194  32.340  0.00  0.00    +0.000 C 
BRANCH  45  46
ATOM     46  C   UNL     1      16.356  78.932  31.673  0.00  0.00    +0.000 A 
ATOM     47  C   UNL     1      16.223  80.285  31.485  0.00  0.00    +0.000 A 
ATOM     48  C   UNL     1      16.650  80.954  30.351  0.00  0.00    +0.000 A 
ATOM     49  C   UNL     1      17.528  80.280  29.534  0.00  0.00    +0.000 A 
ATOM     50  O   UNL     1      18.491  80.916  28.781  0.00  0.00    +0.000 OA
ATOM     51  C   UNL     1      17.510  78.891  29.550  0.00  0.00    +0.000 A 
ATOM     54  C   UNL     1      17.029  78.236  30.677  0.00  0.00    +0.000 A 
BRANCH  51  52
ATOM     52  O   UNL     1      18.464  78.160  28.832  0.00  0.00    +0.000 OA
ATOM     53  C   UNL     1      18.132  76.861  28.357  0.00  0.00    +0.000 C 
ENDBRANCH  51  52
ENDBRANCH  45  46
ENDBRANCH  42  44
ENDBRANCH  39  41
ENDBRANCH  38  39
TORSDOF 14
ENDMDL
MODEL 8
REMARK VINA RESULT:      -6.7     14.725     20.295
REMARK  Name = 
REMARK  14 active torsions:
REMARK  status: ('A' for Active; 'I' for Inactive)
REMARK    1  A    between atoms: O_2  and  C_3
REMARK    2  A    between atoms: C_5  and  C_6
REMARK    3  A    between atoms: C_7  and  C_8
REMARK    4  A    between atoms: C_8  and  C_10
REMARK    5  A    between atoms: C_11  and  C_13
REMARK    6  A    between atoms: C_14  and  C_15
REMARK    7  A    between atoms: C_20  and  O_21
REMARK    8  A    between atoms: C_28  and  C_29
REMARK    9  A    between atoms: C_34  and  O_35
REMARK   10  A    between atoms: C_38  and  C_39
REMARK   11  A    between atoms: C_39  and  C_41
REMARK   12  A    between atoms: C_42  and  C_44
REMARK   13  A    between atoms: C_45  and  C_46
REMARK   14  A    between atoms: C_51  and  O_52
REMARK                            x       y       z     vdW  Elec       q    Type
REMARK                         _______ _______ _______ _____ _____    ______ ____
ROOT
ATOM      3  C   UNL     1      21.830  67.289  19.219  0.00  0.00    +0.000 A 
ATOM      4  C   UNL     1      21.548  65.939  19.275  0.00  0.00    +0.000 A 
ATOM      5  C   UNL     1      21.426  65.248  18.074  0.00  0.00    +0.000 A 
ATOM     24  C   UNL     1      21.088  65.974  16.936  0.00  0.00    +0.000 A 
ATOM     25  C   UNL     1      21.401  67.326  16.817  0.00  0.00    +0.000 A 
ATOM     26  C   UNL     1      21.550  67.973  18.040  0.00  0.00    +0.000 A 
ATOM     27  O   UNL     1      21.990  69.191  17.705  0.00  0.00    +0.000 OA
ATOM     28  C   UNL     1      21.292  69.682  16.435  0.00  0.00    +0.000 C 
ATOM     38  C   UNL     1      20.234  68.321  16.343  0.00  0.00    +0.000 C 
ENDROOT
BRANCH  28  29
ATOM     29  C   UNL     1      22.393  69.091  15.417  0.00  0.00    +0.000 A 
ATOM     30  C   UNL     1      22.429  70.007  14.362  0.00  0.00    +0.000 A 
ATOM     31  C   UNL     1      23.616  70.220  13.665  0.00  0.00    +0.000 A 
ATOM     32  C   UNL     1      24.516  69.162  13.716  0.00  0.00    +0.000 A 
ATOM     33  O   UNL     1      25.413  68.895  12.685  0.00  0.00    +0.000 OA
ATOM     34  C   UNL     1      24.543  68.388  14.871  0.00  0.00    +0.000 A 
ATOM     37  C   UNL     1      23.603  68.683  15.852  0.00  0.00    +0.000 A 
BRANCH  34  35
ATOM     35  O   UNL     1      25.208  67.163  14.790  0.00  0.00    +0.000 OA
ATOM     36  C   UNL     1      24.619  65.917  15.028  0.00  0.00    +0.000 C 
ENDBRANCH  34  35
ENDBRANCH  28  29
BRANCH   3   2
ATOM      1  C   UNL     1      21.543  68.554  21.119  0.00  0.00    +0.000 C 
ATOM      2  O   UNL     1      22.136  67.958  20.409  0.00  0.00    +0.000 OA
ENDBRANCH   3   2
BRANCH   5   6
ATOM      6  C   UNL     1      21.406  63.807  18.149  0.00  0.00    +0.000 C 
ATOM      7  C   UNL     1      20.273  63.125  18.123  0.00  0.00    +0.000 C 
BRANCH   7   8
ATOM      8  C   UNL     1      20.323  61.739  17.640  0.00  0.00    +0.000 C 
ATOM      9  O   UNL     1      20.742  60.862  18.455  0.00  0.00    +0.000 OA
BRANCH   8  10
ATOM     10  C   UNL     1      20.507  61.403  16.228  0.00  0.00    +0.000 C 
ATOM     11  C   UNL     1      19.620  61.945  15.391  0.00  0.00    +0.000 C 
ATOM     12  O   UNL     1      18.299  61.585  15.685  0.00  0.00    +0.000 OA
BRANCH  11  13
ATOM     13  C   UNL     1      19.966  62.311  14.023  0.00  0.00    +0.000 C 
ATOM     14  C   UNL     1      20.268  63.559  13.659  0.00  0.00    +0.000 C 
BRANCH  14  15
ATOM     15  C   UNL     1      21.315  63.727  12.640  0.00  0.00    +0.000 A 
ATOM     16  C   UNL     1      22.464  62.949  12.733  0.00  0.00    +0.000 A 
ATOM     17  C   UNL     1      23.655  63.355  12.143  0.00  0.00    +0.000 A 
ATOM     18  C   UNL     1      23.785  64.642  11.635  0.00  0.00    +0.000 A 
ATOM     19  O   UNL     1      25.054  65.231  11.634  0.00  0.00    +0.000 OA
ATOM     20  C   UNL     1      22.670  65.472  11.614  0.00  0.00    +0.000 A 
ATOM     23  C   UNL     1      21.452  64.893  11.905  0.00  0.00    +0.000 A 
BRANCH  20  21
ATOM     21  O   UNL     1      22.892  66.851  11.701  0.00  0.00    +0.000 OA
ATOM     22  C   UNL     1      22.007  67.784  11.083  0.00  0.00    +0.000 C 
ENDBRANCH  20  21
ENDBRANCH  14  15
ENDBRANCH  11  13
ENDBRANCH   8  10
ENDBRANCH   7   8
ENDBRANCH   5   6
BRANCH  38  39
ATOM     39  C   UNL     1      20.390  68.086  14.769  0.00  0.00    +0.000 C 
ATOM     40  O   UNL     1      20.948  67.049  14.375  0.00  0.00    +0.000 OA
BRANCH  39  41
ATOM     41  C   UNL     1      19.229  68.493  13.959  0.00  0.00    +0.000 C 
ATOM     42  C   UNL     1      18.149  67.732  13.938  0.00  0.00    +0.000 C 
ATOM     43  O   UNL     1      18.158  66.632  14.802  0.00  0.00    +0.000 OA
BRANCH  42  44
ATOM     44  C   UNL     1      17.162  67.692  12.890  0.00  0.00    +0.000 C 
ATOM     45  C   UNL     1      17.144  68.417  11.802  0.00  0.00    +0.000 C 
BRANCH  45  46
ATOM     46  C   UNL     1      16.868  67.853  10.473  0.00  0.00    +0.000 A 
ATOM     47  C   UNL     1      15.654  67.257  10.242  0.00  0.00    +0.000 A 
ATOM     48  C   UNL     1      15.485  66.119   9.472  0.00  0.00    +0.000 A 
ATOM     49  C   UNL     1      16.532  65.772   8.650  0.00  0.00    +0.000 A 
ATOM     50  O   UNL     1      16.358  65.128   7.444  0.00  0.00    +0.000 OA
ATOM     51  C   UNL     1      17.812  66.182   9.003  0.00  0.00    +0.000 A 
ATOM     54  C   UNL     1      17.961  67.296   9.821  0.00  0.00    +0.000 A 
BRANCH  51  52
ATOM     52  O   UNL     1      18.892  65.962   8.141  0.00  0.00    +0.000 OA
ATOM     53  C   UNL     1      19.859  64.974   8.475  0.00  0.00    +0.000 C 
ENDBRANCH  51  52
ENDBRANCH  45  46
ENDBRANCH  42  44
ENDBRANCH  39  41
ENDBRANCH  38  39
TORSDOF 14
ENDMDL
MODEL 9
REMARK VINA RESULT:      -6.6     17.032     22.659
REMARK  Name = 
REMARK  14 active torsions:
REMARK  status: ('A' for Active; 'I' for Inactive)
REMARK    1  A    between atoms: O_2  and  C_3
REMARK    2  A    between atoms: C_5  and  C_6
REMARK    3  A    between atoms: C_7  and  C_8
REMARK    4  A    between atoms: C_8  and  C_10
REMARK    5  A    between atoms: C_11  and  C_13
REMARK    6  A    between atoms: C_14  and  C_15
REMARK    7  A    between atoms: C_20  and  O_21
REMARK    8  A    between atoms: C_28  and  C_29
REMARK    9  A    between atoms: C_34  and  O_35
REMARK   10  A    between atoms: C_38  and  C_39
REMARK   11  A    between atoms: C_39  and  C_41
REMARK   12  A    between atoms: C_42  and  C_44
REMARK   13  A    between atoms: C_45  and  C_46
REMARK   14  A    between atoms: C_51  and  O_52
REMARK                            x       y       z     vdW  Elec       q    Type
REMARK                         _______ _______ _______ _____ _____    ______ ____
ROOT
ATOM      3  C   UNL     1       9.111  55.363  23.040  0.00  0.00    +0.000 A 
ATOM      4  C   UNL     1       9.389  54.541  24.113  0.00  0.00    +0.000 A 
ATOM      5  C   UNL     1       8.481  53.534  24.416  0.00  0.00    +0.000 A 
ATOM     24  C   UNL     1       7.163  53.698  24.000  0.00  0.00    +0.000 A 
ATOM     25  C   UNL     1       6.843  54.476  22.890  0.00  0.00    +0.000 A 
ATOM     26  C   UNL     1       7.794  55.449  22.598  0.00  0.00    +0.000 A 
ATOM     27  O   UNL     1       7.377  55.964  21.437  0.00  0.00    +0.000 OA
ATOM     28  C   UNL     1       5.851  56.074  21.416  0.00  0.00    +0.000 C 
ATOM     38  C   UNL     1       5.669  55.559  23.053  0.00  0.00    +0.000 C 
ENDROOT
BRANCH  28  29
ATOM     29  C   UNL     1       5.604  54.618  20.768  0.00  0.00    +0.000 A 
ATOM     30  C   UNL     1       4.510  54.792  19.915  0.00  0.00    +0.000 A 
ATOM     31  C   UNL     1       4.404  54.026  18.756  0.00  0.00    +0.000 A 
ATOM     32  C   UNL     1       5.088  52.817  18.795  0.00  0.00    +0.000 A 
ATOM     33  O   UNL     1       4.665  51.697  18.083  0.00  0.00    +0.000 OA
ATOM     34  C   UNL     1       6.265  52.761  19.532  0.00  0.00    +0.000 A 
ATOM     37  C   UNL     1       6.620  53.901  20.245  0.00  0.00    +0.000 A 
BRANCH  34  35
ATOM     35  O   UNL     1       6.765  51.490  19.821  0.00  0.00    +0.000 OA
ATOM     36  C   UNL     1       6.589  50.820  21.036  0.00  0.00    +0.000 C 
ENDBRANCH  34  35
ENDBRANCH  28  29
BRANCH   3   2
ATOM      1  C   UNL     1      11.100  56.518  22.980  0.00  0.00    +0.000 C 
ATOM      2  O   UNL     1      10.096  56.259  22.610  0.00  0.00    +0.000 OA
ENDBRANCH   3   2
BRANCH   5   6
ATOM      6  C   UNL     1       8.912  52.525  25.353  0.00  0.00    +0.000 C 
ATOM      7  C   UNL     1       8.719  51.237  25.126  0.00  0.00    +0.000 C 
BRANCH   7   8
ATOM      8  C   UNL     1       9.631  50.285  25.774  0.00  0.00    +0.000 C 
ATOM      9  O   UNL     1      10.687  50.765  26.291  0.00  0.00    +0.000 OA
BRANCH   8  10
ATOM     10  C   UNL     1       9.730  48.884  25.365  0.00  0.00    +0.000 C 
ATOM     11  C   UNL     1       8.659  48.134  25.636  0.00  0.00    +0.000 C 
ATOM     12  O   UNL     1       8.346  48.098  26.999  0.00  0.00    +0.000 OA
BRANCH  11  13
ATOM     13  C   UNL     1       8.259  47.018  24.788  0.00  0.00    +0.000 C 
ATOM     14  C   UNL     1       7.861  45.841  25.275  0.00  0.00    +0.000 C 
BRANCH  14  15
ATOM     15  C   UNL     1       6.783  45.145  24.556  0.00  0.00    +0.000 A 
ATOM     16  C   UNL     1       6.614  43.782  24.769  0.00  0.00    +0.000 A 
ATOM     17  C   UNL     1       5.983  42.981  23.825  0.00  0.00    +0.000 A 
ATOM     18  C   UNL     1       5.701  43.476  22.557  0.00  0.00    +0.000 A 
ATOM     19  O   UNL     1       5.671  42.579  21.484  0.00  0.00    +0.000 OA
ATOM     20  C   UNL     1       5.947  44.819  22.291  0.00  0.00    +0.000 A 
ATOM     23  C   UNL     1       6.257  45.624  23.367  0.00  0.00    +0.000 A 
BRANCH  20  21
ATOM     21  O   UNL     1       6.255  45.167  20.971  0.00  0.00    +0.000 OA
ATOM     22  C   UNL     1       5.452  46.095  20.243  0.00  0.00    +0.000 C 
ENDBRANCH  20  21
ENDBRANCH  14  15
ENDBRANCH  11  13
ENDBRANCH   8  10
ENDBRANCH   7   8
ENDBRANCH   5   6
BRANCH  38  39
ATOM     39  C   UNL     1       4.440  54.571  22.789  0.00  0.00    +0.000 C 
ATOM     40  O   UNL     1       4.610  53.352  22.954  0.00  0.00    +0.000 OA
BRANCH  39  41
ATOM     41  C   UNL     1       3.131  55.067  23.250  0.00  0.00    +0.000 C 
ATOM     42  C   UNL     1       2.850  55.063  24.541  0.00  0.00    +0.000 C 
ATOM     43  O   UNL     1       3.892  54.686  25.394  0.00  0.00    +0.000 OA
BRANCH  42  44
ATOM     44  C   UNL     1       1.532  55.036  25.119  0.00  0.00    +0.000 C 
ATOM     45  C   UNL     1       1.201  54.575  26.297  0.00  0.00    +0.000 C 
BRANCH  45  46
ATOM     46  C   UNL     1       0.309  55.298  27.214  0.00  0.00    +0.000 A 
ATOM     47  C   UNL     1      -1.047  55.112  27.109  0.00  0.00    +0.000 A 
ATOM     48  C   UNL     1      -1.981  56.121  27.272  0.00  0.00    +0.000 A 
ATOM     49  C   UNL     1      -1.540  57.274  27.881  0.00  0.00    +0.000 A 
ATOM     50  O   UNL     1      -2.354  58.071  28.656  0.00  0.00    +0.000 OA
ATOM     51  C   UNL     1      -0.190  57.591  27.795  0.00  0.00    +0.000 A 
ATOM     54  C   UNL     1       0.729  56.571  27.579  0.00  0.00    +0.000 A 
BRANCH  51  52
ATOM     52  O   UNL     1       0.329  58.683  28.499  0.00  0.00    +0.000 OA
ATOM     53  C   UNL     1       1.074  58.456  29.688  0.00  0.00    +0.000 C 
ENDBRANCH  51  52
ENDBRANCH  45  46
ENDBRANCH  42  44
ENDBRANCH  39  41
ENDBRANCH  38  39
TORSDOF 14
ENDMDL
MODEL 10
REMARK VINA RESULT:      -6.6     22.595     28.075
REMARK  Name = 
REMARK  14 active torsions:
REMARK  status: ('A' for Active; 'I' for Inactive)
REMARK    1  A    between atoms: O_2  and  C_3
REMARK    2  A    between atoms: C_5  and  C_6
REMARK    3  A    between atoms: C_7  and  C_8
REMARK    4  A    between atoms: C_8  and  C_10
REMARK    5  A    between atoms: C_11  and  C_13
REMARK    6  A    between atoms: C_14  and  C_15
REMARK    7  A    between atoms: C_20  and  O_21
REMARK    8  A    between atoms: C_28  and  C_29
REMARK    9  A    between atoms: C_34  and  O_35
REMARK   10  A    between atoms: C_38  and  C_39
REMARK   11  A    between atoms: C_39  and  C_41
REMARK   12  A    between atoms: C_42  and  C_44
REMARK   13  A    between atoms: C_45  and  C_46
REMARK   14  A    between atoms: C_51  and  O_52
REMARK                            x       y       z     vdW  Elec       q    Type
REMARK                         _______ _______ _______ _____ _____    ______ ____
ROOT
ATOM      3  C   UNL     1      -1.060  57.055  28.173  0.00  0.00    +0.000 A 
ATOM      4  C   UNL     1       0.077  56.992  27.393  0.00  0.00    +0.000 A 
ATOM      5  C   UNL     1       1.273  57.433  27.948  0.00  0.00    +0.000 A 
ATOM     24  C   UNL     1       1.208  58.347  28.996  0.00  0.00    +0.000 A 
ATOM     25  C   UNL     1       0.101  58.407  29.839  0.00  0.00    +0.000 A 
ATOM     26  C   UNL     1      -1.068  57.924  29.260  0.00  0.00    +0.000 A 
ATOM     27  O   UNL     1      -1.949  57.929  30.266  0.00  0.00    +0.000 OA
ATOM     28  C   UNL     1      -1.751  59.165  31.145  0.00  0.00    +0.000 C 
ATOM     38  C   UNL     1      -0.542  59.851  30.121  0.00  0.00    +0.000 C 
ENDROOT
BRANCH  28  29
ATOM     29  C   UNL     1      -0.713  58.465  32.161  0.00  0.00    +0.000 A 
ATOM     30  C   UNL     1      -1.039  58.987  33.417  0.00  0.00    +0.000 A 
ATOM     31  C   UNL     1      -0.859  58.212  34.560  0.00  0.00    +0.000 A 
ATOM     32  C   UNL     1       0.093  57.207  34.435  0.00  0.00    +0.000 A 
ATOM     33  O   UNL     1       0.840  56.749  35.518  0.00  0.00    +0.000 OA
ATOM     34  C   UNL     1       0.249  56.612  33.189  0.00  0.00    +0.000 A 
ATOM     37  C   UNL     1      -0.503  57.133  32.141  0.00  0.00    +0.000 A 
BRANCH  34  35
ATOM     35  O   UNL     1       1.400  55.844  33.000  0.00  0.00    +0.000 OA
ATOM     36  C   UNL     1       2.552  56.283  32.339  0.00  0.00    +0.000 C 
ENDBRANCH  34  35
ENDBRANCH  28  29
BRANCH   3   2
ATOM      1  C   UNL     1      -2.480  55.424  27.387  0.00  0.00    +0.000 C 
ATOM      2  O   UNL     1      -2.230  56.449  27.700  0.00  0.00    +0.000 OA
ENDBRANCH   3   2
BRANCH   5   6
ATOM      6  C   UNL     1       2.484  57.111  27.232  0.00  0.00    +0.000 C 
ATOM      7  C   UNL     1       2.543  56.095  26.388  0.00  0.00    +0.000 C 
BRANCH   7   8
ATOM      8  C   UNL     1       3.545  56.157  25.315  0.00  0.00    +0.000 C 
ATOM      9  O   UNL     1       4.541  56.921  25.504  0.00  0.00    +0.000 OA
BRANCH   8  10
ATOM     10  C   UNL     1       3.212  55.919  23.911  0.00  0.00    +0.000 C 
ATOM     11  C   UNL     1       3.808  56.734  23.037  0.00  0.00    +0.000 C 
ATOM     12  O   UNL     1       3.518  58.084  23.260  0.00  0.00    +0.000 OA
BRANCH  11  13
ATOM     13  C   UNL     1       4.168  56.299  21.693  0.00  0.00    +0.000 C 
ATOM     14  C   UNL     1       5.411  56.373  21.213  0.00  0.00    +0.000 C 
BRANCH  14  15
ATOM     15  C   UNL     1       5.858  55.283  20.333  0.00  0.00    +0.000 A 
ATOM     16  C   UNL     1       4.921  54.666  19.512  0.00  0.00    +0.000 A 
ATOM     17  C   UNL     1       5.125  53.376  19.034  0.00  0.00    +0.000 A 
ATOM     18  C   UNL     1       6.158  52.595  19.538  0.00  0.00    +0.000 A 
ATOM     19  O   UNL     1       5.995  51.205  19.552  0.00  0.00    +0.000 OA
ATOM     20  C   UNL     1       7.057  53.165  20.432  0.00  0.00    +0.000 A 
ATOM     23  C   UNL     1       6.991  54.532  20.600  0.00  0.00    +0.000 A 
BRANCH  20  21
ATOM     21  O   UNL     1       7.663  52.316  21.365  0.00  0.00    +0.000 OA
ATOM     22  C   UNL     1       7.801  52.695  22.733  0.00  0.00    +0.000 C 
ENDBRANCH  20  21
ENDBRANCH  14  15
ENDBRANCH  11  13
ENDBRANCH   8  10
ENDBRANCH   7   8
ENDBRANCH   5   6
BRANCH  38  39
ATOM     39  C   UNL     1       0.451  60.291  31.295  0.00  0.00    +0.000 C 
ATOM     40  O   UNL     1       1.531  59.692  31.418  0.00  0.00    +0.000 OA
BRANCH  39  41
ATOM     41  C   UNL     1       0.536  61.744  31.527  0.00  0.00    +0.000 C 
ATOM     42  C   UNL     1       0.910  62.195  32.712  0.00  0.00    +0.000 C 
ATOM     43  O   UNL     1       1.315  61.226  33.635  0.00  0.00    +0.000 OA
BRANCH  42  44
ATOM     44  C   UNL     1       0.596  63.487  33.262  0.00  0.00    +0.000 C 
ATOM     45  C   UNL     1       0.910  63.931  34.451  0.00  0.00    +0.000 C 
BRANCH  45  46
ATOM     46  C   UNL     1       1.464  65.272  34.682  0.00  0.00    +0.000 A 
ATOM     47  C   UNL     1       2.821  65.457  34.593  0.00  0.00    +0.000 A 
ATOM     48  C   UNL     1       3.544  66.290  35.429  0.00  0.00    +0.000 A 
ATOM     49  C   UNL     1       2.822  67.208  36.157  0.00  0.00    +0.000 A 
ATOM     50  O   UNL     1       3.322  68.440  36.518  0.00  0.00    +0.000 OA
ATOM     51  C   UNL     1       1.495  66.920  36.450  0.00  0.00    +0.000 A 
ATOM     54  C   UNL     1       0.800  66.039  35.631  0.00  0.00    +0.000 A 
BRANCH  51  52
ATOM     52  O   UNL     1       0.684  67.871  37.080  0.00  0.00    +0.000 OA
ATOM     53  C   UNL     1       0.361  67.709  38.455  0.00  0.00    +0.000 C 
ENDBRANCH  51  52
ENDBRANCH  45  46
ENDBRANCH  42  44
ENDBRANCH  39  41
ENDBRANCH  38  39
TORSDOF 14
ENDMDL
