MODEL 1
REMARK VINA RESULT:      -5.3      0.000      0.000
REMARK  Name = 
REMARK  10 active torsions:
REMARK  status: ('A' for Active; 'I' for Inactive)
REMARK    1  A    between atoms: O_2  and  C_3
REMARK    2  A    between atoms: C_5  and  C_6
REMARK    3  A    between atoms: C_6  and  C_7
REMARK    4  A    between atoms: C_8  and  C_9
REMARK    5  A    between atoms: C_9  and  C_11
REMARK    6  A    between atoms: C_11  and  C_12
REMARK    7  A    between atoms: C_12  and  C_14
REMARK    8  A    between atoms: C_15  and  C_16
REMARK    9  A    between atoms: C_16  and  C_17
REMARK   10  A    between atoms: C_22  and  O_23
REMARK                            x       y       z     vdW  Elec       q    Type
REMARK                         _______ _______ _______ _____ _____    ______ ____
ROOT
ATOM     11  C   UNL     1      10.576  79.049 -26.910  0.00  0.00    +0.000 C 
ENDROOT
BRANCH  11   9
ATOM      9  C   UNL     1      10.774  78.793 -25.465  0.00  0.00    +0.000 C 
ATOM     10  O   UNL     1      10.989  79.700 -24.626  0.00  0.00    +0.000 OA
BRANCH   9   8
ATOM      7  C   UNL     1      11.433  76.535 -24.783  0.00  0.00    +0.000 C 
ATOM      8  C   UNL     1      10.513  77.453 -24.958  0.00  0.00    +0.000 C 
BRANCH   7   6
ATOM      6  C   UNL     1      11.286  75.104 -25.109  0.00  0.00    +0.000 C 
BRANCH   6   5
ATOM      3  C   UNL     1      14.614  73.538 -25.549  0.00  0.00    +0.000 A 
ATOM      4  C   UNL     1      13.445  73.977 -24.957  0.00  0.00    +0.000 A 
ATOM      5  C   UNL     1      12.496  74.553 -25.795  0.00  0.00    +0.000 A 
ATOM     26  C   UNL     1      12.411  73.990 -27.062  0.00  0.00    +0.000 A 
ATOM     27  C   UNL     1      13.600  73.625 -27.680  0.00  0.00    +0.000 A 
ATOM     28  C   UNL     1      14.764  73.546 -26.929  0.00  0.00    +0.000 A 
ATOM     29  O   UNL     1      16.026  73.506 -27.521  0.00  0.00    +0.000 OA
BRANCH   3   2
ATOM      1  C   UNL     1      15.478  72.775 -23.449  0.00  0.00    +0.000 C 
ATOM      2  O   UNL     1      15.715  73.335 -24.716  0.00  0.00    +0.000 OA
ENDBRANCH   3   2
ENDBRANCH   6   5
ENDBRANCH   7   6
ENDBRANCH   9   8
ENDBRANCH  11   9
BRANCH  11  12
ATOM     12  C   UNL     1      11.851  79.119 -27.653  0.00  0.00    +0.000 C 
ATOM     13  O   UNL     1      12.200  80.252 -28.093  0.00  0.00    +0.000 OA
BRANCH  12  14
ATOM     14  C   UNL     1      12.393  77.882 -28.181  0.00  0.00    +0.000 C 
ATOM     15  C   UNL     1      13.584  77.502 -27.752  0.00  0.00    +0.000 C 
BRANCH  15  16
ATOM     16  C   UNL     1      14.236  78.022 -26.533  0.00  0.00    +0.000 C 
BRANCH  16  17
ATOM     17  C   UNL     1      15.517  78.724 -26.862  0.00  0.00    +0.000 A 
ATOM     18  C   UNL     1      16.042  79.685 -26.005  0.00  0.00    +0.000 A 
ATOM     19  C   UNL     1      16.755  80.772 -26.494  0.00  0.00    +0.000 A 
ATOM     20  C   UNL     1      16.755  81.051 -27.854  0.00  0.00    +0.000 A 
ATOM     21  O   UNL     1      16.692  82.359 -28.343  0.00  0.00    +0.000 OA
ATOM     22  C   UNL     1      16.495  79.978 -28.697  0.00  0.00    +0.000 A 
ATOM     25  C   UNL     1      15.924  78.824 -28.186  0.00  0.00    +0.000 A 
BRANCH  22  23
ATOM     23  O   UNL     1      16.799  80.106 -30.041  0.00  0.00    +0.000 OA
ATOM     24  C   UNL     1      17.887  79.446 -30.651  0.00  0.00    +0.000 C 
ENDBRANCH  22  23
ENDBRANCH  16  17
ENDBRANCH  15  16
ENDBRANCH  12  14
ENDBRANCH  11  12
TORSDOF 10
ENDMDL
MODEL 2
REMARK VINA RESULT:      -5.1     38.583     42.445
REMARK  Name = 
REMARK  10 active torsions:
REMARK  status: ('A' for Active; 'I' for Inactive)
REMARK    1  A    between atoms: O_2  and  C_3
REMARK    2  A    between atoms: C_5  and  C_6
REMARK    3  A    between atoms: C_6  and  C_7
REMARK    4  A    between atoms: C_8  and  C_9
REMARK    5  A    between atoms: C_9  and  C_11
REMARK    6  A    between atoms: C_11  and  C_12
REMARK    7  A    between atoms: C_12  and  C_14
REMARK    8  A    between atoms: C_15  and  C_16
REMARK    9  A    between atoms: C_16  and  C_17
REMARK   10  A    between atoms: C_22  and  O_23
REMARK                            x       y       z     vdW  Elec       q    Type
REMARK                         _______ _______ _______ _____ _____    ______ ____
ROOT
ATOM     11  C   UNL     1      -0.517  60.588   8.313  0.00  0.00    +0.000 C 
ENDROOT
BRANCH  11   9
ATOM      9  C   UNL     1      -0.525  62.068   8.339  0.00  0.00    +0.000 C 
ATOM     10  O   UNL     1      -0.487  62.777   7.306  0.00  0.00    +0.000 OA
BRANCH   9   8
ATOM      7  C   UNL     1       0.043  62.746  10.623  0.00  0.00    +0.000 C 
ATOM      8  C   UNL     1      -0.785  62.737   9.607  0.00  0.00    +0.000 C 
BRANCH   7   6
ATOM      6  C   UNL     1      -0.339  62.591  12.039  0.00  0.00    +0.000 C 
BRANCH   6   5
ATOM      3  C   UNL     1      -0.348  58.959  12.764  0.00  0.00    +0.000 A 
ATOM      4  C   UNL     1      -0.664  60.178  12.196  0.00  0.00    +0.000 A 
ATOM      5  C   UNL     1       0.092  61.273  12.600  0.00  0.00    +0.000 A 
ATOM     26  C   UNL     1       1.430  61.002  12.855  0.00  0.00    +0.000 A 
ATOM     27  C   UNL     1       1.729  59.809  13.500  0.00  0.00    +0.000 A 
ATOM     28  C   UNL     1       0.761  58.820  13.588  0.00  0.00    +0.000 A 
ATOM     29  O   UNL     1       0.872  57.752  14.478  0.00  0.00    +0.000 OA
BRANCH   3   2
ATOM      1  C   UNL     1      -2.503  58.138  13.413  0.00  0.00    +0.000 C 
ATOM      2  O   UNL     1      -1.311  57.951  12.692  0.00  0.00    +0.000 OA
ENDBRANCH   3   2
ENDBRANCH   6   5
ENDBRANCH   7   6
ENDBRANCH   9   8
ENDBRANCH  11   9
BRANCH  11  12
ATOM     12  C   UNL     1       0.836  60.031   8.114  0.00  0.00    +0.000 C 
ATOM     13  O   UNL     1       1.222  59.864   6.921  0.00  0.00    +0.000 OA
BRANCH  12  14
ATOM     14  C   UNL     1       1.453  59.341   9.231  0.00  0.00    +0.000 C 
ATOM     15  C   UNL     1       2.570  59.847   9.723  0.00  0.00    +0.000 C 
BRANCH  15  16
ATOM     16  C   UNL     1       3.036  61.228   9.483  0.00  0.00    +0.000 C 
BRANCH  16  17
ATOM     17  C   UNL     1       4.267  61.244   8.633  0.00  0.00    +0.000 A 
ATOM     18  C   UNL     1       4.218  61.689   7.317  0.00  0.00    +0.000 A 
ATOM     19  C   UNL     1       5.043  61.144   6.341  0.00  0.00    +0.000 A 
ATOM     20  C   UNL     1       5.760  59.985   6.603  0.00  0.00    +0.000 A 
ATOM     21  O   UNL     1       5.921  58.979   5.645  0.00  0.00    +0.000 OA
ATOM     22  C   UNL     1       6.030  59.722   7.941  0.00  0.00    +0.000 A 
ATOM     25  C   UNL     1       5.316  60.382   8.929  0.00  0.00    +0.000 A 
BRANCH  22  23
ATOM     23  O   UNL     1       7.001  58.786   8.248  0.00  0.00    +0.000 OA
ATOM     24  C   UNL     1       7.008  58.048   9.450  0.00  0.00    +0.000 C 
ENDBRANCH  22  23
ENDBRANCH  16  17
ENDBRANCH  15  16
ENDBRANCH  12  14
ENDBRANCH  11  12
TORSDOF 10
ENDMDL
MODEL 3
REMARK VINA RESULT:      -5.0     49.021     52.968
REMARK  Name = 
REMARK  10 active torsions:
REMARK  status: ('A' for Active; 'I' for Inactive)
REMARK    1  A    between atoms: O_2  and  C_3
REMARK    2  A    between atoms: C_5  and  C_6
REMARK    3  A    between atoms: C_6  and  C_7
REMARK    4  A    between atoms: C_8  and  C_9
REMARK    5  A    between atoms: C_9  and  C_11
REMARK    6  A    between atoms: C_11  and  C_12
REMARK    7  A    between atoms: C_12  and  C_14
REMARK    8  A    between atoms: C_15  and  C_16
REMARK    9  A    between atoms: C_16  and  C_17
REMARK   10  A    between atoms: C_22  and  O_23
REMARK                            x       y       z     vdW  Elec       q    Type
REMARK                         _______ _______ _______ _____ _____    ______ ____
ROOT
ATOM     11  C   UNL     1      20.384  23.759 -22.638  0.00  0.00    +0.000 C 
ENDROOT
BRANCH  11   9
ATOM      9  C   UNL     1      20.412  23.412 -21.199  0.00  0.00    +0.000 C 
ATOM     10  O   UNL     1      19.384  23.333 -20.487  0.00  0.00    +0.000 OA
BRANCH   9   8
ATOM      7  C   UNL     1      22.347  23.600 -19.708  0.00  0.00    +0.000 C 
ATOM      8  C   UNL     1      21.668  22.951 -20.624  0.00  0.00    +0.000 C 
BRANCH   7   6
ATOM      6  C   UNL     1      23.814  23.751 -19.677  0.00  0.00    +0.000 C 
BRANCH   6   5
ATOM      3  C   UNL     1      25.315  23.567 -16.297  0.00  0.00    +0.000 A 
ATOM      4  C   UNL     1      24.925  23.212 -17.574  0.00  0.00    +0.000 A 
ATOM      5  C   UNL     1      24.309  24.197 -18.338  0.00  0.00    +0.000 A 
ATOM     26  C   UNL     1      24.794  25.483 -18.141  0.00  0.00    +0.000 A 
ATOM     27  C   UNL     1      25.107  25.856 -16.841  0.00  0.00    +0.000 A 
ATOM     28  C   UNL     1      25.221  24.882 -15.860  0.00  0.00    +0.000 A 
ATOM     29  O   UNL     1      25.211  25.195 -14.501  0.00  0.00    +0.000 OA
BRANCH   3   2
ATOM      1  C   UNL     1      26.889  22.122 -15.213  0.00  0.00    +0.000 C 
ATOM      2  O   UNL     1      25.557  22.534 -15.391  0.00  0.00    +0.000 OA
ENDBRANCH   3   2
ENDBRANCH   6   5
ENDBRANCH   7   6
ENDBRANCH   9   8
ENDBRANCH  11   9
BRANCH  11  12
ATOM     12  C   UNL     1      20.544  25.208 -22.876  0.00  0.00    +0.000 C 
ATOM     13  O   UNL     1      19.489  25.903 -22.933  0.00  0.00    +0.000 OA
BRANCH  12  14
ATOM     14  C   UNL     1      21.804  25.665 -23.430  0.00  0.00    +0.000 C 
ATOM     15  C   UNL     1      22.496  26.548 -22.732  0.00  0.00    +0.000 C 
BRANCH  15  16
ATOM     16  C   UNL     1      22.285  26.826 -21.296  0.00  0.00    +0.000 C 
BRANCH  16  17
ATOM     17  C   UNL     1      23.469  27.519 -20.699  0.00  0.00    +0.000 A 
ATOM     18  C   UNL     1      23.314  28.418 -19.651  0.00  0.00    +0.000 A 
ATOM     19  C   UNL     1      24.154  29.517 -19.515  0.00  0.00    +0.000 A 
ATOM     20  C   UNL     1      25.009  29.872 -20.548  0.00  0.00    +0.000 A 
ATOM     21  O   UNL     1      25.244  31.207 -20.892  0.00  0.00    +0.000 OA
ATOM     22  C   UNL     1      25.364  28.854 -21.425  0.00  0.00    +0.000 A 
ATOM     25  C   UNL     1      24.622  27.684 -21.458  0.00  0.00    +0.000 A 
BRANCH  22  23
ATOM     23  O   UNL     1      26.448  29.051 -22.262  0.00  0.00    +0.000 OA
ATOM     24  C   UNL     1      26.326  29.194 -23.661  0.00  0.00    +0.000 C 
ENDBRANCH  22  23
ENDBRANCH  16  17
ENDBRANCH  15  16
ENDBRANCH  12  14
ENDBRANCH  11  12
TORSDOF 10
ENDMDL
MODEL 4
REMARK VINA RESULT:      -4.9     54.490     57.957
REMARK  Name = 
REMARK  10 active torsions:
REMARK  status: ('A' for Active; 'I' for Inactive)
REMARK    1  A    between atoms: O_2  and  C_3
REMARK    2  A    between atoms: C_5  and  C_6
REMARK    3  A    between atoms: C_6  and  C_7
REMARK    4  A    between atoms: C_8  and  C_9
REMARK    5  A    between atoms: C_9  and  C_11
REMARK    6  A    between atoms: C_11  and  C_12
REMARK    7  A    between atoms: C_12  and  C_14
REMARK    8  A    between atoms: C_15  and  C_16
REMARK    9  A    between atoms: C_16  and  C_17
REMARK   10  A    between atoms: C_22  and  O_23
REMARK                            x       y       z     vdW  Elec       q    Type
REMARK                         _______ _______ _______ _____ _____    ______ ____
ROOT
ATOM     11  C   UNL     1      27.343  46.342  18.364  0.00  0.00    +0.000 C 
ENDROOT
BRANCH  11   9
ATOM      9  C   UNL     1      26.904  45.086  19.012  0.00  0.00    +0.000 C 
ATOM     10  O   UNL     1      27.432  43.971  18.786  0.00  0.00    +0.000 OA
BRANCH   9   8
ATOM      7  C   UNL     1      25.736  46.246  20.825  0.00  0.00    +0.000 C 
ATOM      8  C   UNL     1      25.947  45.170  20.107  0.00  0.00    +0.000 C 
BRANCH   7   6
ATOM      6  C   UNL     1      25.540  46.274  22.287  0.00  0.00    +0.000 C 
BRANCH   6   5
ATOM      3  C   UNL     1      23.694  48.867  24.181  0.00  0.00    +0.000 A 
ATOM      4  C   UNL     1      24.156  47.632  23.768  0.00  0.00    +0.000 A 
ATOM      5  C   UNL     1      25.132  47.628  22.778  0.00  0.00    +0.000 A 
ATOM     26  C   UNL     1      26.043  48.674  22.844  0.00  0.00    +0.000 A 
ATOM     27  C   UNL     1      25.552  49.928  23.182  0.00  0.00    +0.000 A 
ATOM     28  C   UNL     1      24.281  50.040  23.726  0.00  0.00    +0.000 A 
ATOM     29  O   UNL     1      23.607  51.259  23.787  0.00  0.00    +0.000 OA
BRANCH   3   2
ATOM      1  C   UNL     1      21.388  48.221  24.270  0.00  0.00    +0.000 C 
ATOM      2  O   UNL     1      22.472  48.900  24.855  0.00  0.00    +0.000 OA
ENDBRANCH   3   2
ENDBRANCH   6   5
ENDBRANCH   7   6
ENDBRANCH   9   8
ENDBRANCH  11   9
BRANCH  11  12
ATOM     12  C   UNL     1      26.732  46.538  17.033  0.00  0.00    +0.000 C 
ATOM     13  O   UNL     1      27.500  46.885  16.090  0.00  0.00    +0.000 OA
BRANCH  12  14
ATOM     14  C   UNL     1      25.295  46.731  16.974  0.00  0.00    +0.000 C 
ATOM     15  C   UNL     1      24.589  45.866  16.267  0.00  0.00    +0.000 C 
BRANCH  15  16
ATOM     16  C   UNL     1      25.078  44.537  15.847  0.00  0.00    +0.000 C 
BRANCH  16  17
ATOM     17  C   UNL     1      24.415  43.445  16.625  0.00  0.00    +0.000 A 
ATOM     18  C   UNL     1      23.373  43.727  17.500  0.00  0.00    +0.000 A 
ATOM     19  C   UNL     1      23.186  42.985  18.660  0.00  0.00    +0.000 A 
ATOM     20  C   UNL     1      24.171  42.107  19.091  0.00  0.00    +0.000 A 
ATOM     21  O   UNL     1      24.495  41.961  20.444  0.00  0.00    +0.000 OA
ATOM     22  C   UNL     1      25.032  41.626  18.112  0.00  0.00    +0.000 A 
ATOM     25  C   UNL     1      25.110  42.271  16.888  0.00  0.00    +0.000 A 
BRANCH  22  23
ATOM     23  O   UNL     1      25.808  40.518  18.402  0.00  0.00    +0.000 OA
ATOM     24  C   UNL     1      26.475  39.764  17.413  0.00  0.00    +0.000 C 
ENDBRANCH  22  23
ENDBRANCH  16  17
ENDBRANCH  15  16
ENDBRANCH  12  14
ENDBRANCH  11  12
TORSDOF 10
ENDMDL
MODEL 5
REMARK VINA RESULT:      -4.9     29.660     32.979
REMARK  Name = 
REMARK  10 active torsions:
REMARK  status: ('A' for Active; 'I' for Inactive)
REMARK    1  A    between atoms: O_2  and  C_3
REMARK    2  A    between atoms: C_5  and  C_6
REMARK    3  A    between atoms: C_6  and  C_7
REMARK    4  A    between atoms: C_8  and  C_9
REMARK    5  A    between atoms: C_9  and  C_11
REMARK    6  A    between atoms: C_11  and  C_12
REMARK    7  A    between atoms: C_12  and  C_14
REMARK    8  A    between atoms: C_15  and  C_16
REMARK    9  A    between atoms: C_16  and  C_17
REMARK   10  A    between atoms: C_22  and  O_23
REMARK                            x       y       z     vdW  Elec       q    Type
REMARK                         _______ _______ _______ _____ _____    ______ ____
ROOT
ATOM     11  C   UNL     1      28.075  58.035  -7.667  0.00  0.00    +0.000 C 
ENDROOT
BRANCH  11   9
ATOM      9  C   UNL     1      27.482  57.230  -8.758  0.00  0.00    +0.000 C 
ATOM     10  O   UNL     1      27.976  57.153  -9.907  0.00  0.00    +0.000 OA
BRANCH   9   8
ATOM      7  C   UNL     1      26.168  55.822  -7.243  0.00  0.00    +0.000 C 
ATOM      8  C   UNL     1      26.385  56.328  -8.434  0.00  0.00    +0.000 C 
BRANCH   7   6
ATOM      6  C   UNL     1      25.760  54.432  -6.966  0.00  0.00    +0.000 C 
BRANCH   6   5
ATOM      3  C   UNL     1      28.643  52.898  -5.219  0.00  0.00    +0.000 A 
ATOM      4  C   UNL     1      27.894  53.548  -6.181  0.00  0.00    +0.000 A 
ATOM      5  C   UNL     1      26.566  53.814  -5.867  0.00  0.00    +0.000 A 
ATOM     26  C   UNL     1      26.327  54.129  -4.535  0.00  0.00    +0.000 A 
ATOM     27  C   UNL     1      27.028  53.412  -3.575  0.00  0.00    +0.000 A 
ATOM     28  C   UNL     1      28.126  52.654  -3.954  0.00  0.00    +0.000 A 
ATOM     29  O   UNL     1      28.671  51.673  -3.125  0.00  0.00    +0.000 OA
BRANCH   3   2
ATOM      1  C   UNL     1      31.016  53.006  -5.536  0.00  0.00    +0.000 C 
ATOM      2  O   UNL     1      29.819  52.275  -5.638  0.00  0.00    +0.000 OA
ENDBRANCH   3   2
ENDBRANCH   6   5
ENDBRANCH   7   6
ENDBRANCH   9   8
ENDBRANCH  11   9
BRANCH  11  12
ATOM     12  C   UNL     1      27.201  59.149  -7.244  0.00  0.00    +0.000 C 
ATOM     13  O   UNL     1      26.949  60.042  -8.102  0.00  0.00    +0.000 OA
BRANCH  12  14
ATOM     14  C   UNL     1      27.036  59.373  -5.820  0.00  0.00    +0.000 C 
ATOM     15  C   UNL     1      25.804  59.417  -5.345  0.00  0.00    +0.000 C 
BRANCH  15  16
ATOM     16  C   UNL     1      24.617  58.900  -6.058  0.00  0.00    +0.000 C 
BRANCH  16  17
ATOM     17  C   UNL     1      24.020  57.732  -5.337  0.00  0.00    +0.000 A 
ATOM     18  C   UNL     1      22.646  57.524  -5.335  0.00  0.00    +0.000 A 
ATOM     19  C   UNL     1      22.006  56.952  -4.243  0.00  0.00    +0.000 A 
ATOM     20  C   UNL     1      22.684  56.796  -3.042  0.00  0.00    +0.000 A 
ATOM     21  O   UNL     1      22.066  57.020  -1.807  0.00  0.00    +0.000 OA
ATOM     22  C   UNL     1      24.069  56.729  -3.126  0.00  0.00    +0.000 A 
ATOM     25  C   UNL     1      24.710  57.153  -4.279  0.00  0.00    +0.000 A 
BRANCH  22  23
ATOM     23  O   UNL     1      24.775  56.252  -2.035  0.00  0.00    +0.000 OA
ATOM     24  C   UNL     1      25.967  56.845  -1.570  0.00  0.00    +0.000 C 
ENDBRANCH  22  23
ENDBRANCH  16  17
ENDBRANCH  15  16
ENDBRANCH  12  14
ENDBRANCH  11  12
TORSDOF 10
ENDMDL
MODEL 6
REMARK VINA RESULT:      -4.9     35.408     40.682
REMARK  Name = 
REMARK  10 active torsions:
REMARK  status: ('A' for Active; 'I' for Inactive)
REMARK    1  A    between atoms: O_2  and  C_3
REMARK    2  A    between atoms: C_5  and  C_6
REMARK    3  A    between atoms: C_6  and  C_7
REMARK    4  A    between atoms: C_8  and  C_9
REMARK    5  A    between atoms: C_9  and  C_11
REMARK    6  A    between atoms: C_11  and  C_12
REMARK    7  A    between atoms: C_12  and  C_14
REMARK    8  A    between atoms: C_15  and  C_16
REMARK    9  A    between atoms: C_16  and  C_17
REMARK   10  A    between atoms: C_22  and  O_23
REMARK                            x       y       z     vdW  Elec       q    Type
REMARK                         _______ _______ _______ _____ _____    ______ ____
ROOT
ATOM     11  C   UNL     1       7.564  40.304 -14.871  0.00  0.00    +0.000 C 
ENDROOT
BRANCH  11   9
ATOM      9  C   UNL     1       7.170  41.730 -14.928  0.00  0.00    +0.000 C 
ATOM     10  O   UNL     1       6.036  42.147 -14.593  0.00  0.00    +0.000 OA
BRANCH   9   8
ATOM      7  C   UNL     1       8.857  43.379 -14.271  0.00  0.00    +0.000 C 
ATOM      8  C   UNL     1       8.201  42.722 -15.197  0.00  0.00    +0.000 C 
BRANCH   7   6
ATOM      6  C   UNL     1       9.201  44.813 -14.321  0.00  0.00    +0.000 C 
BRANCH   6   5
ATOM      3  C   UNL     1       6.265  47.061 -14.114  0.00  0.00    +0.000 A 
ATOM      4  C   UNL     1       7.212  46.193 -14.623  0.00  0.00    +0.000 A 
ATOM      5  C   UNL     1       8.133  45.672 -13.721  0.00  0.00    +0.000 A 
ATOM     26  C   UNL     1       7.634  45.417 -12.450  0.00  0.00    +0.000 A 
ATOM     27  C   UNL     1       6.744  46.340 -11.917  0.00  0.00    +0.000 A 
ATOM     28  C   UNL     1       6.160  47.285 -12.748  0.00  0.00    +0.000 A 
ATOM     29  O   UNL     1       5.524  48.420 -12.246  0.00  0.00    +0.000 OA
BRANCH   3   2
ATOM      1  C   UNL     1       4.342  47.472 -15.483  0.00  0.00    +0.000 C 
ATOM      2  O   UNL     1       5.603  47.889 -15.022  0.00  0.00    +0.000 OA
ENDBRANCH   3   2
ENDBRANCH   6   5
ENDBRANCH   7   6
ENDBRANCH   9   8
ENDBRANCH  11   9
BRANCH  11  12
ATOM     12  C   UNL     1       6.779  39.461 -15.796  0.00  0.00    +0.000 C 
ATOM     13  O   UNL     1       6.893  39.700 -17.033  0.00  0.00    +0.000 OA
BRANCH  12  14
ATOM     14  C   UNL     1       5.653  38.728 -15.249  0.00  0.00    +0.000 C 
ATOM     15  C   UNL     1       5.733  37.409 -15.225  0.00  0.00    +0.000 C 
BRANCH  15  16
ATOM     16  C   UNL     1       6.992  36.648 -15.360  0.00  0.00    +0.000 C 
BRANCH  16  17
ATOM     17  C   UNL     1       6.790  35.204 -15.023  0.00  0.00    +0.000 A 
ATOM     18  C   UNL     1       5.988  34.393 -15.817  0.00  0.00    +0.000 A 
ATOM     19  C   UNL     1       5.249  33.352 -15.268  0.00  0.00    +0.000 A 
ATOM     20  C   UNL     1       5.109  33.249 -13.891  0.00  0.00    +0.000 A 
ATOM     21  O   UNL     1       3.903  32.866 -13.294  0.00  0.00    +0.000 OA
ATOM     22  C   UNL     1       6.104  33.848 -13.128  0.00  0.00    +0.000 A 
ATOM     25  C   UNL     1       6.951  34.778 -13.710  0.00  0.00    +0.000 A 
BRANCH  22  23
ATOM     23  O   UNL     1       6.206  33.509 -11.790  0.00  0.00    +0.000 OA
ATOM     24  C   UNL     1       5.776  34.354 -10.746  0.00  0.00    +0.000 C 
ENDBRANCH  22  23
ENDBRANCH  16  17
ENDBRANCH  15  16
ENDBRANCH  12  14
ENDBRANCH  11  12
TORSDOF 10
ENDMDL
MODEL 7
REMARK VINA RESULT:      -4.8     53.742     55.652
REMARK  Name = 
REMARK  10 active torsions:
REMARK  status: ('A' for Active; 'I' for Inactive)
REMARK    1  A    between atoms: O_2  and  C_3
REMARK    2  A    between atoms: C_5  and  C_6
REMARK    3  A    between atoms: C_6  and  C_7
REMARK    4  A    between atoms: C_8  and  C_9
REMARK    5  A    between atoms: C_9  and  C_11
REMARK    6  A    between atoms: C_11  and  C_12
REMARK    7  A    between atoms: C_12  and  C_14
REMARK    8  A    between atoms: C_15  and  C_16
REMARK    9  A    between atoms: C_16  and  C_17
REMARK   10  A    between atoms: C_22  and  O_23
REMARK                            x       y       z     vdW  Elec       q    Type
REMARK                         _______ _______ _______ _____ _____    ______ ____
ROOT
ATOM     11  C   UNL     1       5.006  56.441  24.520  0.00  0.00    +0.000 C 
ENDROOT
BRANCH  11   9
ATOM      9  C   UNL     1       4.759  56.855  23.120  0.00  0.00    +0.000 C 
ATOM     10  O   UNL     1       3.941  57.748  22.798  0.00  0.00    +0.000 OA
BRANCH   9   8
ATOM      7  C   UNL     1       6.388  55.271  22.204  0.00  0.00    +0.000 C 
ATOM      8  C   UNL     1       5.643  56.343  22.081  0.00  0.00    +0.000 C 
BRANCH   7   6
ATOM      6  C   UNL     1       7.778  55.136  21.729  0.00  0.00    +0.000 C 
BRANCH   6   5
ATOM      3  C   UNL     1      10.857  55.853  23.658  0.00  0.00    +0.000 A 
ATOM      4  C   UNL     1       9.887  55.914  22.676  0.00  0.00    +0.000 A 
ATOM      5  C   UNL     1       8.762  55.118  22.856  0.00  0.00    +0.000 A 
ATOM     26  C   UNL     1       8.344  54.977  24.173  0.00  0.00    +0.000 A 
ATOM     27  C   UNL     1       9.328  54.834  25.143  0.00  0.00    +0.000 A 
ATOM     28  C   UNL     1      10.645  55.136  24.829  0.00  0.00    +0.000 A 
ATOM     29  O   UNL     1      11.711  54.720  25.627  0.00  0.00    +0.000 OA
BRANCH   3   2
ATOM      1  C   UNL     1      12.626  57.428  24.021  0.00  0.00    +0.000 C 
ATOM      2  O   UNL     1      12.133  56.309  23.326  0.00  0.00    +0.000 OA
ENDBRANCH   3   2
ENDBRANCH   6   5
ENDBRANCH   7   6
ENDBRANCH   9   8
ENDBRANCH  11   9
BRANCH  11  12
ATOM     12  C   UNL     1       3.768  56.047  25.222  0.00  0.00    +0.000 C 
ATOM     13  O   UNL     1       3.149  56.952  25.853  0.00  0.00    +0.000 OA
BRANCH  12  14
ATOM     14  C   UNL     1       3.567  54.636  25.495  0.00  0.00    +0.000 C 
ATOM     15  C   UNL     1       2.671  53.993  24.768  0.00  0.00    +0.000 C 
BRANCH  15  16
ATOM     16  C   UNL     1       2.132  54.483  23.483  0.00  0.00    +0.000 C 
BRANCH  16  17
ATOM     17  C   UNL     1       2.826  53.838  22.324  0.00  0.00    +0.000 A 
ATOM     18  C   UNL     1       2.830  54.441  21.072  0.00  0.00    +0.000 A 
ATOM     19  C   UNL     1       2.829  53.682  19.908  0.00  0.00    +0.000 A 
ATOM     20  C   UNL     1       2.584  52.317  19.966  0.00  0.00    +0.000 A 
ATOM     21  O   UNL     1       1.808  51.660  19.006  0.00  0.00    +0.000 OA
ATOM     22  C   UNL     1       2.864  51.697  21.178  0.00  0.00    +0.000 A 
ATOM     25  C   UNL     1       3.023  52.462  22.322  0.00  0.00    +0.000 A 
BRANCH  22  23
ATOM     23  O   UNL     1       2.958  50.317  21.208  0.00  0.00    +0.000 OA
ATOM     24  C   UNL     1       3.927  49.594  20.480  0.00  0.00    +0.000 C 
ENDBRANCH  22  23
ENDBRANCH  16  17
ENDBRANCH  15  16
ENDBRANCH  12  14
ENDBRANCH  11  12
TORSDOF 10
ENDMDL
MODEL 8
REMARK VINA RESULT:      -4.8     40.089     42.799
REMARK  Name = 
REMARK  10 active torsions:
REMARK  status: ('A' for Active; 'I' for Inactive)
REMARK    1  A    between atoms: O_2  and  C_3
REMARK    2  A    between atoms: C_5  and  C_6
REMARK    3  A    between atoms: C_6  and  C_7
REMARK    4  A    between atoms: C_8  and  C_9
REMARK    5  A    between atoms: C_9  and  C_11
REMARK    6  A    between atoms: C_11  and  C_12
REMARK    7  A    between atoms: C_12  and  C_14
REMARK    8  A    between atoms: C_15  and  C_16
REMARK    9  A    between atoms: C_16  and  C_17
REMARK   10  A    between atoms: C_22  and  O_23
REMARK                            x       y       z     vdW  Elec       q    Type
REMARK                         _______ _______ _______ _____ _____    ______ ____
ROOT
ATOM     11  C   UNL     1       0.811  62.504   9.059  0.00  0.00    +0.000 C 
ENDROOT
BRANCH  11   9
ATOM      9  C   UNL     1       0.674  61.719   7.812  0.00  0.00    +0.000 C 
ATOM     10  O   UNL     1       0.683  62.232   6.668  0.00  0.00    +0.000 OA
BRANCH   9   8
ATOM      7  C   UNL     1       0.276  59.567   8.914  0.00  0.00    +0.000 C 
ATOM      8  C   UNL     1       0.727  60.266   7.900  0.00  0.00    +0.000 C 
BRANCH   7   6
ATOM      6  C   UNL     1       0.945  58.395   9.510  0.00  0.00    +0.000 C 
BRANCH   6   5
ATOM      3  C   UNL     1      -0.807  58.884  12.736  0.00  0.00    +0.000 A 
ATOM      4  C   UNL     1      -0.490  58.978  11.395  0.00  0.00    +0.000 A 
ATOM      5  C   UNL     1       0.567  58.197  10.944  0.00  0.00    +0.000 A 
ATOM     26  C   UNL     1       0.682  56.953  11.553  0.00  0.00    +0.000 A 
ATOM     27  C   UNL     1       0.440  56.886  12.918  0.00  0.00    +0.000 A 
ATOM     28  C   UNL     1      -0.187  57.949  13.554  0.00  0.00    +0.000 A 
ATOM     29  O   UNL     1      -0.173  58.094  14.941  0.00  0.00    +0.000 OA
BRANCH   3   2
ATOM      1  C   UNL     1      -1.527  61.168  12.649  0.00  0.00    +0.000 C 
ATOM      2  O   UNL     1      -1.567  59.916  13.288  0.00  0.00    +0.000 OA
ENDBRANCH   3   2
ENDBRANCH   6   5
ENDBRANCH   7   6
ENDBRANCH   9   8
ENDBRANCH  11   9
BRANCH  11  12
ATOM     12  C   UNL     1       2.197  62.960   9.293  0.00  0.00    +0.000 C 
ATOM     13  O   UNL     1       2.753  63.614   8.364  0.00  0.00    +0.000 OA
BRANCH  12  14
ATOM     14  C   UNL     1       2.956  62.304  10.340  0.00  0.00    +0.000 C 
ATOM     15  C   UNL     1       3.752  61.309   9.989  0.00  0.00    +0.000 C 
BRANCH  15  16
ATOM     16  C   UNL     1       4.208  61.054   8.607  0.00  0.00    +0.000 C 
BRANCH  16  17
ATOM     17  C   UNL     1       4.857  59.711   8.490  0.00  0.00    +0.000 A 
ATOM     18  C   UNL     1       4.159  58.553   8.809  0.00  0.00    +0.000 A 
ATOM     19  C   UNL     1       4.805  57.450   9.354  0.00  0.00    +0.000 A 
ATOM     20  C   UNL     1       6.110  57.563   9.812  0.00  0.00    +0.000 A 
ATOM     21  O   UNL     1       6.544  56.929  10.981  0.00  0.00    +0.000 OA
ATOM     22  C   UNL     1       6.869  58.581   9.249  0.00  0.00    +0.000 A 
ATOM     25  C   UNL     1       6.241  59.610   8.565  0.00  0.00    +0.000 A 
BRANCH  22  23
ATOM     23  O   UNL     1       8.243  58.547   9.408  0.00  0.00    +0.000 OA
ATOM     24  C   UNL     1       9.128  58.143   8.386  0.00  0.00    +0.000 C 
ENDBRANCH  22  23
ENDBRANCH  16  17
ENDBRANCH  15  16
ENDBRANCH  12  14
ENDBRANCH  11  12
TORSDOF 10
ENDMDL
MODEL 9
REMARK VINA RESULT:      -4.8     33.818     37.752
REMARK  Name = 
REMARK  10 active torsions:
REMARK  status: ('A' for Active; 'I' for Inactive)
REMARK    1  A    between atoms: O_2  and  C_3
REMARK    2  A    between atoms: C_5  and  C_6
REMARK    3  A    between atoms: C_6  and  C_7
REMARK    4  A    between atoms: C_8  and  C_9
REMARK    5  A    between atoms: C_9  and  C_11
REMARK    6  A    between atoms: C_11  and  C_12
REMARK    7  A    between atoms: C_12  and  C_14
REMARK    8  A    between atoms: C_15  and  C_16
REMARK    9  A    between atoms: C_16  and  C_17
REMARK   10  A    between atoms: C_22  and  O_23
REMARK                            x       y       z     vdW  Elec       q    Type
REMARK                         _______ _______ _______ _____ _____    ______ ____
ROOT
ATOM     11  C   UNL     1       6.661  44.822 -16.785  0.00  0.00    +0.000 C 
ENDROOT
BRANCH  11   9
ATOM      9  C   UNL     1       7.511  44.184 -17.815  0.00  0.00    +0.000 C 
ATOM     10  O   UNL     1       7.946  44.788 -18.824  0.00  0.00    +0.000 OA
BRANCH   9   8
ATOM      7  C   UNL     1       7.630  41.762 -18.165  0.00  0.00    +0.000 C 
ATOM      8  C   UNL     1       8.032  42.849 -17.552  0.00  0.00    +0.000 C 
BRANCH   7   6
ATOM      6  C   UNL     1       7.395  40.455 -17.522  0.00  0.00    +0.000 C 
BRANCH   6   5
ATOM      3  C   UNL     1       8.658  37.078 -18.367  0.00  0.00    +0.000 A 
ATOM      4  C   UNL     1       8.096  38.123 -17.659  0.00  0.00    +0.000 A 
ATOM      5  C   UNL     1       7.916  39.319 -18.344  0.00  0.00    +0.000 A 
ATOM     26  C   UNL     1       7.575  39.184 -19.684  0.00  0.00    +0.000 A 
ATOM     27  C   UNL     1       8.208  38.181 -20.406  0.00  0.00    +0.000 A 
ATOM     28  C   UNL     1       8.897  37.184 -19.730  0.00  0.00    +0.000 A 
ATOM     29  O   UNL     1       9.808  36.347 -20.374  0.00  0.00    +0.000 OA
BRANCH   3   2
ATOM      1  C   UNL     1       8.430  34.871 -17.461  0.00  0.00    +0.000 C 
ATOM      2  O   UNL     1       9.209  36.029 -17.629  0.00  0.00    +0.000 OA
ENDBRANCH   3   2
ENDBRANCH   6   5
ENDBRANCH   7   6
ENDBRANCH   9   8
ENDBRANCH  11   9
BRANCH  11  12
ATOM     12  C   UNL     1       7.321  45.976 -16.140  0.00  0.00    +0.000 C 
ATOM     13  O   UNL     1       6.896  47.128 -16.444  0.00  0.00    +0.000 OA
BRANCH  12  14
ATOM     14  C   UNL     1       8.630  45.762 -15.553  0.00  0.00    +0.000 C 
ATOM     15  C   UNL     1       8.803  46.122 -14.294  0.00  0.00    +0.000 C 
BRANCH  15  16
ATOM     16  C   UNL     1       7.704  46.375 -13.340  0.00  0.00    +0.000 C 
BRANCH  16  17
ATOM     17  C   UNL     1       7.013  45.103 -12.960  0.00  0.00    +0.000 A 
ATOM     18  C   UNL     1       7.717  43.907 -12.882  0.00  0.00    +0.000 A 
ATOM     19  C   UNL     1       7.115  42.695 -13.198  0.00  0.00    +0.000 A 
ATOM     20  C   UNL     1       5.877  42.675 -13.825  0.00  0.00    +0.000 A 
ATOM     21  O   UNL     1       5.571  41.756 -14.834  0.00  0.00    +0.000 OA
ATOM     22  C   UNL     1       5.081  43.799 -13.641  0.00  0.00    +0.000 A 
ATOM     25  C   UNL     1       5.646  44.975 -13.174  0.00  0.00    +0.000 A 
BRANCH  22  23
ATOM     23  O   UNL     1       3.735  43.713 -13.953  0.00  0.00    +0.000 OA
ATOM     24  C   UNL     1       3.193  44.181 -15.168  0.00  0.00    +0.000 C 
ENDBRANCH  22  23
ENDBRANCH  16  17
ENDBRANCH  15  16
ENDBRANCH  12  14
ENDBRANCH  11  12
TORSDOF 10
ENDMDL
MODEL 10
REMARK VINA RESULT:      -4.7     35.830     40.342
REMARK  Name = 
REMARK  10 active torsions:
REMARK  status: ('A' for Active; 'I' for Inactive)
REMARK    1  A    between atoms: O_2  and  C_3
REMARK    2  A    between atoms: C_5  and  C_6
REMARK    3  A    between atoms: C_6  and  C_7
REMARK    4  A    between atoms: C_8  and  C_9
REMARK    5  A    between atoms: C_9  and  C_11
REMARK    6  A    between atoms: C_11  and  C_12
REMARK    7  A    between atoms: C_12  and  C_14
REMARK    8  A    between atoms: C_15  and  C_16
REMARK    9  A    between atoms: C_16  and  C_17
REMARK   10  A    between atoms: C_22  and  O_23
REMARK                            x       y       z     vdW  Elec       q    Type
REMARK                         _______ _______ _______ _____ _____    ______ ____
ROOT
ATOM     11  C   UNL     1       5.964  38.620 -16.455  0.00  0.00    +0.000 C 
ENDROOT
BRANCH  11   9
ATOM      9  C   UNL     1       6.027  37.425 -15.583  0.00  0.00    +0.000 C 
ATOM     10  O   UNL     1       5.145  37.136 -14.741  0.00  0.00    +0.000 OA
BRANCH   9   8
ATOM      7  C   UNL     1       7.303  35.908 -17.023  0.00  0.00    +0.000 C 
ATOM      8  C   UNL     1       7.060  36.431 -15.845  0.00  0.00    +0.000 C 
BRANCH   7   6
ATOM      6  C   UNL     1       7.605  34.488 -17.282  0.00  0.00    +0.000 C 
BRANCH   6   5
ATOM      3  C   UNL     1       8.873  32.851 -20.353  0.00  0.00    +0.000 A 
ATOM      4  C   UNL     1       8.120  33.100 -19.221  0.00  0.00    +0.000 A 
ATOM      5  C   UNL     1       8.368  34.294 -18.554  0.00  0.00    +0.000 A 
ATOM     26  C   UNL     1       8.687  35.371 -19.373  0.00  0.00    +0.000 A 
ATOM     27  C   UNL     1       9.510  35.122 -20.462  0.00  0.00    +0.000 A 
ATOM     28  C   UNL     1       9.730  33.814 -20.869  0.00  0.00    +0.000 A 
ATOM     29  O   UNL     1      10.774  33.470 -21.727  0.00  0.00    +0.000 OA
BRANCH   3   2
ATOM      1  C   UNL     1       9.762  30.642 -20.089  0.00  0.00    +0.000 C 
ATOM      2  O   UNL     1       8.937  31.531 -20.800  0.00  0.00    +0.000 OA
ENDBRANCH   3   2
ENDBRANCH   6   5
ENDBRANCH   7   6
ENDBRANCH   9   8
ENDBRANCH  11   9
BRANCH  11  12
ATOM     12  C   UNL     1       7.138  39.501 -16.295  0.00  0.00    +0.000 C 
ATOM     13  O   UNL     1       8.029  39.444 -17.192  0.00  0.00    +0.000 OA
BRANCH  12  14
ATOM     14  C   UNL     1       7.401  40.043 -14.976  0.00  0.00    +0.000 C 
ATOM     15  C   UNL     1       7.642  41.338 -14.881  0.00  0.00    +0.000 C 
BRANCH  15  16
ATOM     16  C   UNL     1       7.310  42.326 -15.928  0.00  0.00    +0.000 C 
BRANCH  16  17
ATOM     17  C   UNL     1       8.016  43.624 -15.690  0.00  0.00    +0.000 A 
ATOM     18  C   UNL     1       9.081  43.703 -14.801  0.00  0.00    +0.000 A 
ATOM     19  C   UNL     1       9.317  44.855 -14.061  0.00  0.00    +0.000 A 
ATOM     20  C   UNL     1       8.361  45.861 -14.014  0.00  0.00    +0.000 A 
ATOM     21  O   UNL     1       8.083  46.566 -12.838  0.00  0.00    +0.000 OA
ATOM     22  C   UNL     1       7.477  45.914 -15.084  0.00  0.00    +0.000 A 
ATOM     25  C   UNL     1       7.349  44.821 -15.926  0.00  0.00    +0.000 A 
BRANCH  22  23
ATOM     23  O   UNL     1       6.729  47.063 -15.266  0.00  0.00    +0.000 OA
ATOM     24  C   UNL     1       5.345  47.133 -15.001  0.00  0.00    +0.000 C 
ENDBRANCH  22  23
ENDBRANCH  16  17
ENDBRANCH  15  16
ENDBRANCH  12  14
ENDBRANCH  11  12
TORSDOF 10
ENDMDL
