MODEL 1
REMARK VINA RESULT:      -6.2      0.000      0.000
REMARK  Name = 
REMARK  2 active torsions:
REMARK  status: ('A' for Active; 'I' for Inactive)
REMARK    1  A    between atoms: C_5  and  C_6
REMARK    2  A    between atoms: C_7  and  C_8
REMARK                            x       y       z     vdW  Elec       q    Type
REMARK                         _______ _______ _______ _____ _____    ______ ____
ROOT
ATOM      6  C   UNL     1      28.073  81.018 -25.999  0.00  0.00    +0.000 C 
ATOM      7  C   UNL     1      26.830  81.197 -25.567  0.00  0.00    +0.000 C 
ENDROOT
BRANCH   7   8
ATOM      8  C   UNL     1      26.477  81.060 -24.149  0.00  0.00    +0.000 A 
ATOM      9  C   UNL     1      26.841  79.944 -23.433  0.00  0.00    +0.000 A 
ATOM     10  C   UNL     1      27.032  79.922 -22.077  0.00  0.00    +0.000 A 
ATOM     11  O   UNL     1      26.789  78.713 -21.419  0.00  0.00    +0.000 OA
ATOM     12  C   UNL     1      26.947  81.145 -21.422  0.00  0.00    +0.000 A 
ATOM     13  C   UNL     1      26.417  82.252 -22.063  0.00  0.00    +0.000 A 
ATOM     14  O   UNL     1      25.839  83.313 -21.377  0.00  0.00    +0.000 OA
ATOM     15  C   UNL     1      26.343  82.245 -23.449  0.00  0.00    +0.000 A 
ENDBRANCH   7   8
BRANCH   6   5
ATOM      1  O   UNL     1      29.103  78.593 -30.896  0.00  0.00    +0.000 OA
ATOM      2  C   UNL     1      28.649  78.932 -29.618  0.00  0.00    +0.000 A 
ATOM      3  C   UNL     1      27.601  79.800 -29.435  0.00  0.00    +0.000 A 
ATOM      4  C   UNL     1      27.400  80.478 -28.253  0.00  0.00    +0.000 A 
ATOM      5  C   UNL     1      28.350  80.313 -27.257  0.00  0.00    +0.000 A 
ATOM     16  C   UNL     1      29.200  79.218 -27.270  0.00  0.00    +0.000 A 
ATOM     17  C   UNL     1      29.424  78.639 -28.508  0.00  0.00    +0.000 A 
ENDBRANCH   6   5
TORSDOF 2
ENDMDL
MODEL 2
REMARK VINA RESULT:      -6.0     40.393     41.936
REMARK  Name = 
REMARK  2 active torsions:
REMARK  status: ('A' for Active; 'I' for Inactive)
REMARK    1  A    between atoms: C_5  and  C_6
REMARK    2  A    between atoms: C_7  and  C_8
REMARK                            x       y       z     vdW  Elec       q    Type
REMARK                         _______ _______ _______ _____ _____    ______ ____
ROOT
ATOM      6  C   UNL     1      20.634  70.289  13.665  0.00  0.00    +0.000 C 
ATOM      7  C   UNL     1      20.632  71.545  14.099  0.00  0.00    +0.000 C 
ENDROOT
BRANCH   7   8
ATOM      8  C   UNL     1      21.527  71.993  15.172  0.00  0.00    +0.000 A 
ATOM      9  C   UNL     1      21.802  71.184  16.249  0.00  0.00    +0.000 A 
ATOM     10  C   UNL     1      22.948  71.253  16.997  0.00  0.00    +0.000 A 
ATOM     11  O   UNL     1      22.857  70.865  18.337  0.00  0.00    +0.000 OA
ATOM     12  C   UNL     1      23.922  72.138  16.552  0.00  0.00    +0.000 A 
ATOM     13  C   UNL     1      23.625  73.088  15.590  0.00  0.00    +0.000 A 
ATOM     14  O   UNL     1      24.330  74.279  15.466  0.00  0.00    +0.000 OA
ATOM     15  C   UNL     1      22.499  72.903  14.800  0.00  0.00    +0.000 A 
ENDBRANCH   7   8
BRANCH   6   5
ATOM      1  O   UNL     1      15.832  67.662  12.683  0.00  0.00    +0.000 OA
ATOM      2  C   UNL     1      17.163  68.092  12.717  0.00  0.00    +0.000 A 
ATOM      3  C   UNL     1      18.014  67.711  13.725  0.00  0.00    +0.000 A 
ATOM      4  C   UNL     1      19.155  68.417  14.034  0.00  0.00    +0.000 A 
ATOM      5  C   UNL     1      19.385  69.593  13.334  0.00  0.00    +0.000 A 
ATOM     16  C   UNL     1      18.762  69.819  12.117  0.00  0.00    +0.000 A 
ATOM     17  C   UNL     1      17.572  69.140  11.909  0.00  0.00    +0.000 A 
ENDBRANCH   6   5
TORSDOF 2
ENDMDL
MODEL 3
REMARK VINA RESULT:      -5.9      1.269      2.384
REMARK  Name = 
REMARK  2 active torsions:
REMARK  status: ('A' for Active; 'I' for Inactive)
REMARK    1  A    between atoms: C_5  and  C_6
REMARK    2  A    between atoms: C_7  and  C_8
REMARK                            x       y       z     vdW  Elec       q    Type
REMARK                         _______ _______ _______ _____ _____    ______ ____
ROOT
ATOM      6  C   UNL     1      26.868  80.915 -27.290  0.00  0.00    +0.000 C 
ATOM      7  C   UNL     1      26.889  80.411 -26.061  0.00  0.00    +0.000 C 
ENDROOT
BRANCH   7   8
ATOM      8  C   UNL     1      27.072  81.263 -24.880  0.00  0.00    +0.000 A 
ATOM      9  C   UNL     1      26.735  82.595 -24.909  0.00  0.00    +0.000 A 
ATOM     10  C   UNL     1      26.377  83.328 -23.808  0.00  0.00    +0.000 A 
ATOM     11  O   UNL     1      26.656  84.697 -23.836  0.00  0.00    +0.000 OA
ATOM     12  C   UNL     1      26.255  82.627 -22.614  0.00  0.00    +0.000 A 
ATOM     13  C   UNL     1      26.747  81.338 -22.499  0.00  0.00    +0.000 A 
ATOM     14  O   UNL     1      27.124  80.782 -21.283  0.00  0.00    +0.000 OA
ATOM     15  C   UNL     1      26.996  80.617 -23.659  0.00  0.00    +0.000 A 
ENDBRANCH   7   8
BRANCH   6   5
ATOM      1  O   UNL     1      29.285  78.525 -31.692  0.00  0.00    +0.000 OA
ATOM      2  C   UNL     1      28.575  78.811 -30.521  0.00  0.00    +0.000 A 
ATOM      3  C   UNL     1      27.289  79.290 -30.561  0.00  0.00    +0.000 A 
ATOM      4  C   UNL     1      26.720  79.969 -29.506  0.00  0.00    +0.000 A 
ATOM      5  C   UNL     1      27.527  80.228 -28.408  0.00  0.00    +0.000 A 
ATOM     16  C   UNL     1      28.677  79.486 -28.190  0.00  0.00    +0.000 A 
ATOM     17  C   UNL     1      29.243  78.901 -29.311  0.00  0.00    +0.000 A 
ENDBRANCH   6   5
TORSDOF 2
ENDMDL
MODEL 4
REMARK VINA RESULT:      -5.9      3.158      7.385
REMARK  Name = 
REMARK  2 active torsions:
REMARK  status: ('A' for Active; 'I' for Inactive)
REMARK    1  A    between atoms: C_5  and  C_6
REMARK    2  A    between atoms: C_7  and  C_8
REMARK                            x       y       z     vdW  Elec       q    Type
REMARK                         _______ _______ _______ _____ _____    ______ ____
ROOT
ATOM      6  C   UNL     1      25.718  82.144 -26.261  0.00  0.00    +0.000 C 
ATOM      7  C   UNL     1      26.049  83.257 -26.907  0.00  0.00    +0.000 C 
ENDROOT
BRANCH   7   8
ATOM      8  C   UNL     1      26.485  83.235 -28.309  0.00  0.00    +0.000 A 
ATOM      9  C   UNL     1      25.830  83.974 -29.265  0.00  0.00    +0.000 A 
ATOM     10  C   UNL     1      26.407  84.434 -30.419  0.00  0.00    +0.000 A 
ATOM     11  O   UNL     1      25.571  84.603 -31.527  0.00  0.00    +0.000 OA
ATOM     12  C   UNL     1      27.772  84.213 -30.556  0.00  0.00    +0.000 A 
ATOM     13  C   UNL     1      28.432  83.332 -29.715  0.00  0.00    +0.000 A 
ATOM     14  O   UNL     1      29.606  82.683 -30.076  0.00  0.00    +0.000 OA
ATOM     15  C   UNL     1      27.829  82.985 -28.514  0.00  0.00    +0.000 A 
ENDBRANCH   7   8
BRANCH   6   5
ATOM      1  O   UNL     1      27.440  81.216 -21.056  0.00  0.00    +0.000 OA
ATOM      2  C   UNL     1      26.715  81.331 -22.246  0.00  0.00    +0.000 A 
ATOM      3  C   UNL     1      26.780  80.369 -23.222  0.00  0.00    +0.000 A 
ATOM      4  C   UNL     1      26.447  80.623 -24.534  0.00  0.00    +0.000 A 
ATOM      5  C   UNL     1      26.109  81.928 -24.863  0.00  0.00    +0.000 A 
ATOM     16  C   UNL     1      25.705  82.818 -23.880  0.00  0.00    +0.000 A 
ATOM     17  C   UNL     1      26.149  82.547 -22.596  0.00  0.00    +0.000 A 
ENDBRANCH   6   5
TORSDOF 2
ENDMDL
MODEL 5
REMARK VINA RESULT:      -5.9     40.872     42.786
REMARK  Name = 
REMARK  2 active torsions:
REMARK  status: ('A' for Active; 'I' for Inactive)
REMARK    1  A    between atoms: C_5  and  C_6
REMARK    2  A    between atoms: C_7  and  C_8
REMARK                            x       y       z     vdW  Elec       q    Type
REMARK                         _______ _______ _______ _____ _____    ______ ____
ROOT
ATOM      6  C   UNL     1       9.102  44.843 -14.628  0.00  0.00    +0.000 C 
ATOM      7  C   UNL     1       8.896  43.531 -14.691  0.00  0.00    +0.000 C 
ENDROOT
BRANCH   7   8
ATOM      8  C   UNL     1       8.723  42.837 -15.972  0.00  0.00    +0.000 A 
ATOM      9  C   UNL     1       7.688  41.953 -16.164  0.00  0.00    +0.000 A 
ATOM     10  C   UNL     1       7.133  41.662 -17.382  0.00  0.00    +0.000 A 
ATOM     11  O   UNL     1       6.576  40.390 -17.542  0.00  0.00    +0.000 OA
ATOM     12  C   UNL     1       7.596  42.402 -18.463  0.00  0.00    +0.000 A 
ATOM     13  C   UNL     1       8.744  43.169 -18.353  0.00  0.00    +0.000 A 
ATOM     14  O   UNL     1       9.533  43.504 -19.446  0.00  0.00    +0.000 OA
ATOM     15  C   UNL     1       9.196  43.508 -17.085  0.00  0.00    +0.000 A 
ENDBRANCH   7   8
BRANCH   6   5
ATOM      1  O   UNL     1       6.772  47.786 -10.525  0.00  0.00    +0.000 OA
ATOM      2  C   UNL     1       7.066  47.109 -11.713  0.00  0.00    +0.000 A 
ATOM      3  C   UNL     1       6.903  45.751 -11.825  0.00  0.00    +0.000 A 
ATOM      4  C   UNL     1       7.556  45.005 -12.781  0.00  0.00    +0.000 A 
ATOM      5  C   UNL     1       8.462  45.667 -13.595  0.00  0.00    +0.000 A 
ATOM     16  C   UNL     1       8.397  47.044 -13.744  0.00  0.00    +0.000 A 
ATOM     17  C   UNL     1       7.803  47.739 -12.703  0.00  0.00    +0.000 A 
ENDBRANCH   6   5
TORSDOF 2
ENDMDL
MODEL 6
REMARK VINA RESULT:      -5.7     53.921     57.005
REMARK  Name = 
REMARK  2 active torsions:
REMARK  status: ('A' for Active; 'I' for Inactive)
REMARK    1  A    between atoms: C_5  and  C_6
REMARK    2  A    between atoms: C_7  and  C_8
REMARK                            x       y       z     vdW  Elec       q    Type
REMARK                         _______ _______ _______ _____ _____    ______ ____
ROOT
ATOM      6  C   UNL     1      23.625  44.294  17.367  0.00  0.00    +0.000 C 
ATOM      7  C   UNL     1      24.073  43.048  17.478  0.00  0.00    +0.000 C 
ENDROOT
BRANCH   7   8
ATOM      8  C   UNL     1      23.955  42.293  18.731  0.00  0.00    +0.000 A 
ATOM      9  C   UNL     1      24.631  41.110  18.911  0.00  0.00    +0.000 A 
ATOM     10  C   UNL     1      25.009  40.611  20.130  0.00  0.00    +0.000 A 
ATOM     11  O   UNL     1      25.107  39.222  20.248  0.00  0.00    +0.000 OA
ATOM     12  C   UNL     1      24.773  41.427  21.230  0.00  0.00    +0.000 A 
ATOM     13  C   UNL     1      23.948  42.534  21.123  0.00  0.00    +0.000 A 
ATOM     14  O   UNL     1      23.270  43.076  22.208  0.00  0.00    +0.000 OA
ATOM     15  C   UNL     1      23.685  43.046  19.859  0.00  0.00    +0.000 A 
ENDBRANCH   7   8
BRANCH   6   5
ATOM      1  O   UNL     1      26.408  48.029  14.330  0.00  0.00    +0.000 OA
ATOM      2  C   UNL     1      25.983  47.103  15.288  0.00  0.00    +0.000 A 
ATOM      3  C   UNL     1      26.112  45.752  15.086  0.00  0.00    +0.000 A 
ATOM      4  C   UNL     1      25.353  44.827  15.768  0.00  0.00    +0.000 A 
ATOM      5  C   UNL     1      24.380  45.314  16.628  0.00  0.00    +0.000 A 
ATOM     16  C   UNL     1      24.451  46.612  17.107  0.00  0.00    +0.000 A 
ATOM     17  C   UNL     1      25.159  47.510  16.325  0.00  0.00    +0.000 A 
ENDBRANCH   6   5
TORSDOF 2
ENDMDL
MODEL 7
REMARK VINA RESULT:      -5.7     51.961     55.861
REMARK  Name = 
REMARK  2 active torsions:
REMARK  status: ('A' for Active; 'I' for Inactive)
REMARK    1  A    between atoms: C_5  and  C_6
REMARK    2  A    between atoms: C_7  and  C_8
REMARK                            x       y       z     vdW  Elec       q    Type
REMARK                         _______ _______ _______ _____ _____    ______ ____
ROOT
ATOM      6  C   UNL     1       6.416  82.902  25.830  0.00  0.00    +0.000 C 
ATOM      7  C   UNL     1       5.169  83.085  26.251  0.00  0.00    +0.000 C 
ENDROOT
BRANCH   7   8
ATOM      8  C   UNL     1       4.590  82.271  27.326  0.00  0.00    +0.000 A 
ATOM      9  C   UNL     1       4.718  80.903  27.327  0.00  0.00    +0.000 A 
ATOM     10  C   UNL     1       4.694  80.123  28.453  0.00  0.00    +0.000 A 
ATOM     11  O   UNL     1       4.224  78.814  28.311  0.00  0.00    +0.000 OA
ATOM     12  C   UNL     1       4.640  80.795  29.668  0.00  0.00    +0.000 A 
ATOM     13  C   UNL     1       4.337  82.145  29.713  0.00  0.00    +0.000 A 
ATOM     14  O   UNL     1       3.777  82.753  30.830  0.00  0.00    +0.000 OA
ATOM     15  C   UNL     1       4.477  82.897  28.554  0.00  0.00    +0.000 A 
ENDBRANCH   7   8
BRANCH   6   5
ATOM      1  O   UNL     1       7.598  82.895  20.396  0.00  0.00    +0.000 OA
ATOM      2  C   UNL     1       7.612  83.024  21.789  0.00  0.00    +0.000 A 
ATOM      3  C   UNL     1       7.908  81.960  22.605  0.00  0.00    +0.000 A 
ATOM      4  C   UNL     1       7.530  81.917  23.929  0.00  0.00    +0.000 A 
ATOM      5  C   UNL     1       6.758  82.967  24.404  0.00  0.00    +0.000 A 
ATOM     16  C   UNL     1       6.736  84.182  23.736  0.00  0.00    +0.000 A 
ATOM     17  C   UNL     1       7.044  84.137  22.386  0.00  0.00    +0.000 A 
ENDBRANCH   6   5
TORSDOF 2
ENDMDL
MODEL 8
REMARK VINA RESULT:      -5.6     12.899     14.523
REMARK  Name = 
REMARK  2 active torsions:
REMARK  status: ('A' for Active; 'I' for Inactive)
REMARK    1  A    between atoms: C_5  and  C_6
REMARK    2  A    between atoms: C_7  and  C_8
REMARK                            x       y       z     vdW  Elec       q    Type
REMARK                         _______ _______ _______ _____ _____    ______ ____
ROOT
ATOM      6  C   UNL     1      30.189  79.234 -12.127  0.00  0.00    +0.000 C 
ATOM      7  C   UNL     1      29.297  79.498 -11.179  0.00  0.00    +0.000 C 
ENDROOT
BRANCH   7   8
ATOM      8  C   UNL     1      27.942  79.962 -11.501  0.00  0.00    +0.000 A 
ATOM      9  C   UNL     1      27.375  79.696 -12.724  0.00  0.00    +0.000 A 
ATOM     10  C   UNL     1      26.026  79.609 -12.950  0.00  0.00    +0.000 A 
ATOM     11  O   UNL     1      25.571  79.948 -14.228  0.00  0.00    +0.000 OA
ATOM     12  C   UNL     1      25.206  79.697 -11.831  0.00  0.00    +0.000 A 
ATOM     13  C   UNL     1      25.713  80.134 -10.619  0.00  0.00    +0.000 A 
ATOM     14  O   UNL     1      24.920  80.721  -9.640  0.00  0.00    +0.000 OA
ATOM     15  C   UNL     1      27.087  80.103 -10.424  0.00  0.00    +0.000 A 
ENDBRANCH   7   8
BRANCH   6   5
ATOM      1  O   UNL     1      35.500  80.646 -11.275  0.00  0.00    +0.000 OA
ATOM      2  C   UNL     1      34.178  80.537 -11.718  0.00  0.00    +0.000 A 
ATOM      3  C   UNL     1      33.143  81.135 -11.043  0.00  0.00    +0.000 A 
ATOM      4  C   UNL     1      31.836  80.722 -11.179  0.00  0.00    +0.000 A 
ATOM      5  C   UNL     1      31.600  79.612 -11.975  0.00  0.00    +0.000 A 
ATOM     16  C   UNL     1      32.534  79.211 -12.917  0.00  0.00    +0.000 A 
ATOM     17  C   UNL     1      33.844  79.589 -12.671  0.00  0.00    +0.000 A 
ENDBRANCH   6   5
TORSDOF 2
ENDMDL
MODEL 9
REMARK VINA RESULT:      -5.6     40.774     42.053
REMARK  Name = 
REMARK  2 active torsions:
REMARK  status: ('A' for Active; 'I' for Inactive)
REMARK    1  A    between atoms: C_5  and  C_6
REMARK    2  A    between atoms: C_7  and  C_8
REMARK                            x       y       z     vdW  Elec       q    Type
REMARK                         _______ _______ _______ _____ _____    ______ ____
ROOT
ATOM      6  C   UNL     1       8.519  42.882 -17.561  0.00  0.00    +0.000 C 
ATOM      7  C   UNL     1       9.448  43.390 -16.760  0.00  0.00    +0.000 C 
ENDROOT
BRANCH   7   8
ATOM      8  C   UNL     1       9.103  44.036 -15.488  0.00  0.00    +0.000 A 
ATOM      9  C   UNL     1       8.824  45.380 -15.429  0.00  0.00    +0.000 A 
ATOM     10  C   UNL     1       8.026  45.965 -14.481  0.00  0.00    +0.000 A 
ATOM     11  O   UNL     1       8.301  47.296 -14.150  0.00  0.00    +0.000 OA
ATOM     12  C   UNL     1       7.388  45.105 -13.596  0.00  0.00    +0.000 A 
ATOM     13  C   UNL     1       7.770  43.777 -13.505  0.00  0.00    +0.000 A 
ATOM     14  O   UNL     1       7.572  43.014 -12.360  0.00  0.00    +0.000 OA
ATOM     15  C   UNL     1       8.495  43.222 -14.550  0.00  0.00    +0.000 A 
ENDBRANCH   7   8
BRANCH   6   5
ATOM      1  O   UNL     1       8.554  43.456 -23.092  0.00  0.00    +0.000 OA
ATOM      2  C   UNL     1       8.793  43.092 -21.763  0.00  0.00    +0.000 A 
ATOM      3  C   UNL     1       8.025  42.147 -21.129  0.00  0.00    +0.000 A 
ATOM      4  C   UNL     1       7.938  42.065 -19.757  0.00  0.00    +0.000 A 
ATOM      5  C   UNL     1       8.602  43.034 -19.020  0.00  0.00    +0.000 A 
ATOM     16  C   UNL     1       9.633  43.766 -19.587  0.00  0.00    +0.000 A 
ATOM     17  C   UNL     1       9.609  43.879 -20.967  0.00  0.00    +0.000 A 
ENDBRANCH   6   5
TORSDOF 2
ENDMDL
MODEL 10
REMARK VINA RESULT:      -5.6     26.011     28.035
REMARK  Name = 
REMARK  2 active torsions:
REMARK  status: ('A' for Active; 'I' for Inactive)
REMARK    1  A    between atoms: C_5  and  C_6
REMARK    2  A    between atoms: C_7  and  C_8
REMARK                            x       y       z     vdW  Elec       q    Type
REMARK                         _______ _______ _______ _____ _____    ______ ____
ROOT
ATOM      6  C   UNL     1      13.487  57.921 -16.393  0.00  0.00    +0.000 C 
ATOM      7  C   UNL     1      14.453  57.334 -17.091  0.00  0.00    +0.000 C 
ENDROOT
BRANCH   7   8
ATOM      8  C   UNL     1      15.593  58.092 -17.621  0.00  0.00    +0.000 A 
ATOM      9  C   UNL     1      16.031  59.238 -17.001  0.00  0.00    +0.000 A 
ATOM     10  C   UNL     1      17.313  59.714 -17.070  0.00  0.00    +0.000 A 
ATOM     11  O   UNL     1      17.487  61.097 -16.956  0.00  0.00    +0.000 OA
ATOM     12  C   UNL     1      18.235  58.911 -17.730  0.00  0.00    +0.000 A 
ATOM     13  C   UNL     1      17.812  57.848 -18.511  0.00  0.00    +0.000 A 
ATOM     14  O   UNL     1      18.565  57.341 -19.563  0.00  0.00    +0.000 OA
ATOM     15  C   UNL     1      16.530  57.353 -18.319  0.00  0.00    +0.000 A 
ENDBRANCH   7   8
BRANCH   6   5
ATOM      1  O   UNL     1       8.211  56.457 -17.367  0.00  0.00    +0.000 OA
ATOM      2  C   UNL     1       9.394  57.085 -16.964  0.00  0.00    +0.000 A 
ATOM      3  C   UNL     1      10.096  57.904 -17.813  0.00  0.00    +0.000 A 
ATOM      4  C   UNL     1      11.430  58.190 -17.628  0.00  0.00    +0.000 A 
ATOM      5  C   UNL     1      12.078  57.552 -16.580  0.00  0.00    +0.000 A 
ATOM     16  C   UNL     1      11.352  57.014 -15.529  0.00  0.00    +0.000 A 
ATOM     17  C   UNL     1      10.040  56.669 -15.812  0.00  0.00    +0.000 A 
ENDBRANCH   6   5
TORSDOF 2
ENDMDL
