MODEL 1
REMARK VINA RESULT:      -7.7      0.000      0.000
REMARK  Name = 
REMARK  8 active torsions:
REMARK  status: ('A' for Active; 'I' for Inactive)
REMARK    1  A    between atoms: C_2  and  O_3
REMARK    2  A    between atoms: C_2  and  C_31
REMARK    3  A    between atoms: O_3  and  C_4
REMARK    4  A    between atoms: C_9  and  C_10
REMARK    5  A    between atoms: C_13  and  O_14
REMARK    6  A    between atoms: O_14  and  C_15
REMARK    7  A    between atoms: C_18  and  C_19
REMARK    8  A    between atoms: C_20  and  C_21
REMARK                            x       y       z     vdW  Elec       q    Type
REMARK                         _______ _______ _______ _____ _____    ______ ____
ROOT
ATOM      4  C   UNL     1      21.113  65.427  14.538  0.00  0.00    +0.000 C 
ATOM      5  C   UNL     1      21.727  63.930  15.055  0.00  0.00    +0.000 C 
ATOM      6  O   UNL     1      22.765  64.601  15.905  0.00  0.00    +0.000 OA
ATOM      7  C   UNL     1      20.721  63.719  16.403  0.00  0.00    +0.000 C 
ATOM      8  O   UNL     1      21.231  62.323  16.582  0.00  0.00    +0.000 OA
ATOM      9  C   UNL     1      19.347  63.127  15.567  0.00  0.00    +0.000 C 
ATOM     12  O   UNL     1      18.942  64.496  15.098  0.00  0.00    +0.000 OA
ATOM     13  C   UNL     1      19.725  64.685  13.814  0.00  0.00    +0.000 C 
ENDROOT
BRANCH   9  10
ATOM     10  C   UNL     1      20.118  62.607  14.215  0.00  0.00    +0.000 C 
ATOM     11  O   UNL     1      19.350  61.572  13.742  0.00  0.00    +0.000 OA
ENDBRANCH   9  10
BRANCH   4   3
ATOM      3  O   UNL     1      20.447  65.899  15.816  0.00  0.00    +0.000 OA
BRANCH   3   2
ATOM      1  O   UNL     1      20.782  67.428  15.901  0.00  0.00    +0.000 OA
ATOM      2  C   UNL     1      20.946  67.122  16.152  0.00  0.00    +0.000 C 
BRANCH   2  31
ATOM     31  C   UNL     1      21.325  67.684  17.427  0.00  0.00    +0.000 A 
ATOM     32  C   UNL     1      21.597  66.780  18.429  0.00  0.00    +0.000 A 
ATOM     33  C   UNL     1      21.636  67.262  19.729  0.00  0.00    +0.000 A 
ATOM     34  O   UNL     1      21.270  66.484  20.812  0.00  0.00    +0.000 OA
ATOM     35  C   UNL     1      21.930  68.612  19.861  0.00  0.00    +0.000 A 
ATOM     36  O   UNL     1      21.640  69.266  21.061  0.00  0.00    +0.000 OA
ATOM     37  C   UNL     1      22.060  69.449  18.759  0.00  0.00    +0.000 A 
ATOM     38  O   UNL     1      22.637  70.697  18.855  0.00  0.00    +0.000 OA
ATOM     39  C   UNL     1      21.994  68.895  17.503  0.00  0.00    +0.000 A 
ENDBRANCH   2  31
ENDBRANCH   3   2
ENDBRANCH   4   3
BRANCH  13  14
ATOM     14  O   UNL     1      19.129  66.075  13.550  0.00  0.00    +0.000 OA
BRANCH  14  15
ATOM     15  C   UNL     1      18.020  66.257  12.816  0.00  0.00    +0.000 A 
ATOM     16  C   UNL     1      17.818  65.986  11.469  0.00  0.00    +0.000 A 
ATOM     17  C   UNL     1      17.366  66.975  10.595  0.00  0.00    +0.000 A 
ATOM     18  C   UNL     1      17.099  68.267  11.042  0.00  0.00    +0.000 A 
ATOM     29  C   UNL     1      16.722  68.275  12.383  0.00  0.00    +0.000 A 
ATOM     30  C   UNL     1      17.225  67.315  13.261  0.00  0.00    +0.000 A 
BRANCH  18  19
ATOM     19  C   UNL     1      17.777  69.437  10.450  0.00  0.00    +0.000 C 
ATOM     20  C   UNL     1      18.351  70.220  11.367  0.00  0.00    +0.000 C 
BRANCH  20  21
ATOM     21  C   UNL     1      19.383  69.540  12.164  0.00  0.00    +0.000 A 
ATOM     22  C   UNL     1      19.728  70.135  13.369  0.00  0.00    +0.000 A 
ATOM     23  C   UNL     1      21.049  70.238  13.790  0.00  0.00    +0.000 A 
ATOM     24  O   UNL     1      21.417  70.956  14.907  0.00  0.00    +0.000 OA
ATOM     25  C   UNL     1      21.999  69.498  13.119  0.00  0.00    +0.000 A 
ATOM     26  C   UNL     1      21.686  68.762  12.000  0.00  0.00    +0.000 A 
ATOM     27  O   UNL     1      22.720  68.265  11.227  0.00  0.00    +0.000 OA
ATOM     28  C   UNL     1      20.405  68.845  11.529  0.00  0.00    +0.000 A 
ENDBRANCH  20  21
ENDBRANCH  18  19
ENDBRANCH  14  15
ENDBRANCH  13  14
TORSDOF 8
ENDMDL
MODEL 2
REMARK VINA RESULT:      -7.5     44.343     48.798
REMARK  Name = 
REMARK  8 active torsions:
REMARK  status: ('A' for Active; 'I' for Inactive)
REMARK    1  A    between atoms: C_2  and  O_3
REMARK    2  A    between atoms: C_2  and  C_31
REMARK    3  A    between atoms: O_3  and  C_4
REMARK    4  A    between atoms: C_9  and  C_10
REMARK    5  A    between atoms: C_13  and  O_14
REMARK    6  A    between atoms: O_14  and  C_15
REMARK    7  A    between atoms: C_18  and  C_19
REMARK    8  A    between atoms: C_20  and  C_21
REMARK                            x       y       z     vdW  Elec       q    Type
REMARK                         _______ _______ _______ _____ _____    ______ ____
ROOT
ATOM      4  C   UNL     1      25.022  82.644 -30.817  0.00  0.00    +0.000 C 
ATOM      5  C   UNL     1      23.450  82.565 -31.457  0.00  0.00    +0.000 C 
ATOM      6  O   UNL     1      22.845  82.547 -30.085  0.00  0.00    +0.000 OA
ATOM      7  C   UNL     1      23.168  84.231 -31.588  0.00  0.00    +0.000 C 
ATOM      8  O   UNL     1      21.898  83.971 -32.337  0.00  0.00    +0.000 OA
ATOM      9  C   UNL     1      24.004  84.484 -33.063  0.00  0.00    +0.000 C 
ATOM     12  O   UNL     1      25.351  84.456 -32.398  0.00  0.00    +0.000 OA
ATOM     13  C   UNL     1      25.710  82.984 -32.369  0.00  0.00    +0.000 C 
ENDROOT
BRANCH   9  10
ATOM     10  C   UNL     1      23.954  82.939 -33.614  0.00  0.00    +0.000 C 
ATOM     11  O   UNL     1      23.626  83.044 -34.942  0.00  0.00    +0.000 OA
ENDBRANCH   9  10
BRANCH   4   3
ATOM      3  O   UNL     1      25.020  84.062 -30.280  0.00  0.00    +0.000 OA
BRANCH   3   2
ATOM      1  O   UNL     1      25.343  84.314 -28.767  0.00  0.00    +0.000 OA
ATOM      2  C   UNL     1      25.570  84.066 -29.033  0.00  0.00    +0.000 C 
BRANCH   2  31
ATOM     31  C   UNL     1      26.252  83.038 -28.283  0.00  0.00    +0.000 A 
ATOM     32  C   UNL     1      27.628  83.063 -28.337  0.00  0.00    +0.000 A 
ATOM     33  C   UNL     1      28.304  81.926 -27.920  0.00  0.00    +0.000 A 
ATOM     34  O   UNL     1      29.518  81.552 -28.466  0.00  0.00    +0.000 OA
ATOM     35  C   UNL     1      27.620  81.117 -27.023  0.00  0.00    +0.000 A 
ATOM     36  O   UNL     1      28.040  79.798 -26.829  0.00  0.00    +0.000 OA
ATOM     37  C   UNL     1      26.303  81.367 -26.660  0.00  0.00    +0.000 A 
ATOM     38  O   UNL     1      25.721  80.764 -25.566  0.00  0.00    +0.000 OA
ATOM     39  C   UNL     1      25.699  82.509 -27.128  0.00  0.00    +0.000 A 
ENDBRANCH   2  31
ENDBRANCH   3   2
ENDBRANCH   4   3
BRANCH  13  14
ATOM     14  O   UNL     1      27.070  83.237 -31.702  0.00  0.00    +0.000 OA
BRANCH  14  15
ATOM     15  C   UNL     1      28.222  83.246 -32.391  0.00  0.00    +0.000 A 
ATOM     16  C   UNL     1      28.442  82.889 -33.715  0.00  0.00    +0.000 A 
ATOM     17  C   UNL     1      29.396  81.929 -34.054  0.00  0.00    +0.000 A 
ATOM     18  C   UNL     1      30.162  81.295 -33.077  0.00  0.00    +0.000 A 
ATOM     29  C   UNL     1      30.334  82.108 -31.958  0.00  0.00    +0.000 A 
ATOM     30  C   UNL     1      29.348  83.025 -31.597  0.00  0.00    +0.000 A 
BRANCH  18  19
ATOM     19  C   UNL     1      30.164  79.826 -32.940  0.00  0.00    +0.000 C 
ATOM     20  C   UNL     1      29.442  79.402 -31.901  0.00  0.00    +0.000 C 
BRANCH  20  21
ATOM     21  C   UNL     1      28.022  79.780 -31.972  0.00  0.00    +0.000 A 
ATOM     22  C   UNL     1      27.354  79.911 -30.763  0.00  0.00    +0.000 A 
ATOM     23  C   UNL     1      26.067  79.419 -30.573  0.00  0.00    +0.000 A 
ATOM     24  O   UNL     1      25.452  79.409 -29.341  0.00  0.00    +0.000 OA
ATOM     25  C   UNL     1      25.354  79.036 -31.689  0.00  0.00    +0.000 A 
ATOM     26  C   UNL     1      25.918  79.029 -32.944  0.00  0.00    +0.000 A 
ATOM     27  O   UNL     1      25.243  78.389 -33.966  0.00  0.00    +0.000 OA
ATOM     28  C   UNL     1      27.243  79.352 -33.039  0.00  0.00    +0.000 A 
ENDBRANCH  20  21
ENDBRANCH  18  19
ENDBRANCH  14  15
ENDBRANCH  13  14
TORSDOF 8
ENDMDL
MODEL 3
REMARK VINA RESULT:      -7.4     39.885     44.007
REMARK  Name = 
REMARK  8 active torsions:
REMARK  status: ('A' for Active; 'I' for Inactive)
REMARK    1  A    between atoms: C_2  and  O_3
REMARK    2  A    between atoms: C_2  and  C_31
REMARK    3  A    between atoms: O_3  and  C_4
REMARK    4  A    between atoms: C_9  and  C_10
REMARK    5  A    between atoms: C_13  and  O_14
REMARK    6  A    between atoms: O_14  and  C_15
REMARK    7  A    between atoms: C_18  and  C_19
REMARK    8  A    between atoms: C_20  and  C_21
REMARK                            x       y       z     vdW  Elec       q    Type
REMARK                         _______ _______ _______ _____ _____    ______ ____
ROOT
ATOM      4  C   UNL     1       8.796  36.161 -17.625  0.00  0.00    +0.000 C 
ATOM      5  C   UNL     1       8.689  35.224 -19.038  0.00  0.00    +0.000 C 
ATOM      6  O   UNL     1       8.727  33.950 -18.248  0.00  0.00    +0.000 OA
ATOM      7  C   UNL     1       6.999  35.144 -19.135  0.00  0.00    +0.000 C 
ATOM      8  O   UNL     1       7.093  34.508 -20.488  0.00  0.00    +0.000 OA
ATOM      9  C   UNL     1       6.742  36.678 -19.857  0.00  0.00    +0.000 C 
ATOM     12  O   UNL     1       6.937  37.411 -18.559  0.00  0.00    +0.000 OA
ATOM     13  C   UNL     1       8.435  37.621 -18.484  0.00  0.00    +0.000 C 
ENDROOT
BRANCH   9  10
ATOM     10  C   UNL     1       8.241  36.876 -20.494  0.00  0.00    +0.000 C 
ATOM     11  O   UNL     1       8.030  37.366 -21.758  0.00  0.00    +0.000 OA
ENDBRANCH   9  10
BRANCH   4   3
ATOM      3  O   UNL     1       7.417  35.924 -17.041  0.00  0.00    +0.000 OA
BRANCH   3   2
ATOM      1  O   UNL     1       7.922  35.701 -15.573  0.00  0.00    +0.000 OA
ATOM      2  C   UNL     1       7.544  35.572 -15.730  0.00  0.00    +0.000 C 
BRANCH   2  31
ATOM     31  C   UNL     1       6.574  35.482 -14.664  0.00  0.00    +0.000 A 
ATOM     32  C   UNL     1       7.051  35.046 -13.449  0.00  0.00    +0.000 A 
ATOM     33  C   UNL     1       6.119  34.631 -12.509  0.00  0.00    +0.000 A 
ATOM     34  O   UNL     1       6.399  33.642 -11.584  0.00  0.00    +0.000 OA
ATOM     35  C   UNL     1       4.848  35.172 -12.646  0.00  0.00    +0.000 A 
ATOM     36  O   UNL     1       3.768  34.561 -12.002  0.00  0.00    +0.000 OA
ATOM     37  C   UNL     1       4.503  35.980 -13.722  0.00  0.00    +0.000 A 
ATOM     38  O   UNL     1       3.362  36.754 -13.716  0.00  0.00    +0.000 OA
ATOM     39  C   UNL     1       5.482  36.333 -14.618  0.00  0.00    +0.000 A 
ENDBRANCH   2  31
ENDBRANCH   3   2
ENDBRANCH   4   3
BRANCH  13  14
ATOM     14  O   UNL     1       8.352  38.377 -17.150  0.00  0.00    +0.000 OA
BRANCH  14  15
ATOM     15  C   UNL     1       7.535  39.425 -16.963  0.00  0.00    +0.000 A 
ATOM     16  C   UNL     1       7.535  40.651 -17.617  0.00  0.00    +0.000 A 
ATOM     17  C   UNL     1       7.614  41.847 -16.904  0.00  0.00    +0.000 A 
ATOM     18  C   UNL     1       7.693  41.856 -15.513  0.00  0.00    +0.000 A 
ATOM     29  C   UNL     1       7.074  40.737 -14.960  0.00  0.00    +0.000 A 
ATOM     30  C   UNL     1       7.051  39.529 -15.658  0.00  0.00    +0.000 A 
BRANCH  18  19
ATOM     19  C   UNL     1       8.818  42.509 -14.814  0.00  0.00    +0.000 C 
ATOM     20  C   UNL     1       8.833  43.833 -14.985  0.00  0.00    +0.000 C 
BRANCH  20  21
ATOM     21  C   UNL     1       7.626  44.509 -14.486  0.00  0.00    +0.000 A 
ATOM     22  C   UNL     1       6.966  45.338 -15.381  0.00  0.00    +0.000 A 
ATOM     23  C   UNL     1       6.468  46.582 -15.007  0.00  0.00    +0.000 A 
ATOM     24  O   UNL     1       5.945  47.475 -15.916  0.00  0.00    +0.000 OA
ATOM     25  C   UNL     1       6.400  46.869 -13.660  0.00  0.00    +0.000 A 
ATOM     26  C   UNL     1       6.905  46.012 -12.709  0.00  0.00    +0.000 A 
ATOM     27  O   UNL     1       7.045  46.474 -11.414  0.00  0.00    +0.000 OA
ATOM     28  C   UNL     1       7.544  44.888 -13.152  0.00  0.00    +0.000 A 
ENDBRANCH  20  21
ENDBRANCH  18  19
ENDBRANCH  14  15
ENDBRANCH  13  14
TORSDOF 8
ENDMDL
MODEL 4
REMARK VINA RESULT:      -7.4     42.834     47.171
REMARK  Name = 
REMARK  8 active torsions:
REMARK  status: ('A' for Active; 'I' for Inactive)
REMARK    1  A    between atoms: C_2  and  O_3
REMARK    2  A    between atoms: C_2  and  C_31
REMARK    3  A    between atoms: O_3  and  C_4
REMARK    4  A    between atoms: C_9  and  C_10
REMARK    5  A    between atoms: C_13  and  O_14
REMARK    6  A    between atoms: O_14  and  C_15
REMARK    7  A    between atoms: C_18  and  C_19
REMARK    8  A    between atoms: C_20  and  C_21
REMARK                            x       y       z     vdW  Elec       q    Type
REMARK                         _______ _______ _______ _____ _____    ______ ____
ROOT
ATOM      4  C   UNL     1      29.725  83.998 -27.861  0.00  0.00    +0.000 C 
ATOM      5  C   UNL     1      31.134  84.749 -28.439  0.00  0.00    +0.000 C 
ATOM      6  O   UNL     1      31.658  84.936 -27.047  0.00  0.00    +0.000 OA
ATOM      7  C   UNL     1      32.077  83.355 -28.637  0.00  0.00    +0.000 C 
ATOM      8  O   UNL     1      33.139  84.154 -29.327  0.00  0.00    +0.000 OA
ATOM      9  C   UNL     1      31.439  82.866 -30.151  0.00  0.00    +0.000 C 
ATOM     12  O   UNL     1      30.190  82.302 -29.534  0.00  0.00    +0.000 OA
ATOM     13  C   UNL     1      29.258  83.494 -29.451  0.00  0.00    +0.000 C 
ENDROOT
BRANCH   9  10
ATOM     10  C   UNL     1      30.858  84.324 -30.628  0.00  0.00    +0.000 C 
ATOM     11  O   UNL     1      30.998  84.335 -31.993  0.00  0.00    +0.000 OA
ENDBRANCH   9  10
BRANCH   4   3
ATOM      3  O   UNL     1      30.301  82.676 -27.390  0.00  0.00    +0.000 OA
BRANCH   3   2
ATOM      1  O   UNL     1      30.057  82.590 -25.844  0.00  0.00    +0.000 OA
ATOM      2  C   UNL     1      29.819  82.399 -26.145  0.00  0.00    +0.000 C 
BRANCH   2  31
ATOM     31  C   UNL     1      28.473  82.206 -25.660  0.00  0.00    +0.000 A 
ATOM     32  C   UNL     1      28.012  80.909 -25.658  0.00  0.00    +0.000 A 
ATOM     33  C   UNL     1      26.645  80.717 -25.522  0.00  0.00    +0.000 A 
ATOM     34  O   UNL     1      25.992  79.646 -26.104  0.00  0.00    +0.000 OA
ATOM     35  C   UNL     1      25.956  81.741 -24.886  0.00  0.00    +0.000 A 
ATOM     36  O   UNL     1      24.567  81.823 -25.021  0.00  0.00    +0.000 OA
ATOM     37  C   UNL     1      26.576  82.929 -24.517  0.00  0.00    +0.000 A 
ATOM     38  O   UNL     1      25.992  83.812 -23.634  0.00  0.00    +0.000 OA
ATOM     39  C   UNL     1      27.932  83.044 -24.698  0.00  0.00    +0.000 A 
ENDBRANCH   2  31
ENDBRANCH   3   2
ENDBRANCH   4   3
BRANCH  13  14
ATOM     14  O   UNL     1      28.113  82.669 -28.845  0.00  0.00    +0.000 OA
BRANCH  14  15
ATOM     15  C   UNL     1      26.822  83.001 -29.004  0.00  0.00    +0.000 A 
ATOM     16  C   UNL     1      25.692  82.309 -28.587  0.00  0.00    +0.000 A 
ATOM     17  C   UNL     1      24.689  81.958 -29.490  0.00  0.00    +0.000 A 
ATOM     18  C   UNL     1      24.782  82.289 -30.840  0.00  0.00    +0.000 A 
ATOM     29  C   UNL     1      25.540  83.443 -31.030  0.00  0.00    +0.000 A 
ATOM     30  C   UNL     1      26.578  83.755 -30.153  0.00  0.00    +0.000 A 
BRANCH  18  19
ATOM     19  C   UNL     1      24.726  81.252 -31.889  0.00  0.00    +0.000 C 
ATOM     20  C   UNL     1      25.822  81.229 -32.652  0.00  0.00    +0.000 C 
BRANCH  20  21
ATOM     21  C   UNL     1      27.059  80.955 -31.905  0.00  0.00    +0.000 A 
ATOM     22  C   UNL     1      28.232  81.469 -32.438  0.00  0.00    +0.000 A 
ATOM     23  C   UNL     1      29.410  80.731 -32.480  0.00  0.00    +0.000 A 
ATOM     24  O   UNL     1      30.537  81.170 -33.138  0.00  0.00    +0.000 OA
ATOM     25  C   UNL     1      29.470  79.572 -31.735  0.00  0.00    +0.000 A 
ATOM     26  C   UNL     1      28.375  79.089 -31.056  0.00  0.00    +0.000 A 
ATOM     27  O   UNL     1      28.426  77.800 -30.557  0.00  0.00    +0.000 OA
ATOM     28  C   UNL     1      27.196  79.764 -31.202  0.00  0.00    +0.000 A 
ENDBRANCH  20  21
ENDBRANCH  18  19
ENDBRANCH  14  15
ENDBRANCH  13  14
TORSDOF 8
ENDMDL
MODEL 5
REMARK VINA RESULT:      -7.3     26.927     31.094
REMARK  Name = 
REMARK  8 active torsions:
REMARK  status: ('A' for Active; 'I' for Inactive)
REMARK    1  A    between atoms: C_2  and  O_3
REMARK    2  A    between atoms: C_2  and  C_31
REMARK    3  A    between atoms: O_3  and  C_4
REMARK    4  A    between atoms: C_9  and  C_10
REMARK    5  A    between atoms: C_13  and  O_14
REMARK    6  A    between atoms: O_14  and  C_15
REMARK    7  A    between atoms: C_18  and  C_19
REMARK    8  A    between atoms: C_20  and  C_21
REMARK                            x       y       z     vdW  Elec       q    Type
REMARK                         _______ _______ _______ _____ _____    ______ ____
ROOT
ATOM      4  C   UNL     1      14.119  66.248 -13.548  0.00  0.00    +0.000 C 
ATOM      5  C   UNL     1      12.941  67.456 -13.350  0.00  0.00    +0.000 C 
ATOM      6  O   UNL     1      13.697  68.068 -12.209  0.00  0.00    +0.000 OA
ATOM      7  C   UNL     1      13.592  68.593 -14.426  0.00  0.00    +0.000 C 
ATOM      8  O   UNL     1      12.365  69.442 -14.292  0.00  0.00    +0.000 OA
ATOM      9  C   UNL     1      12.979  67.910 -15.873  0.00  0.00    +0.000 C 
ATOM     12  O   UNL     1      14.025  66.832 -15.902  0.00  0.00    +0.000 OA
ATOM     13  C   UNL     1      13.432  65.728 -15.050  0.00  0.00    +0.000 C 
ENDROOT
BRANCH   9  10
ATOM     10  C   UNL     1      11.745  67.056 -15.210  0.00  0.00    +0.000 C 
ATOM     11  O   UNL     1      10.672  67.277 -16.036  0.00  0.00    +0.000 OA
ENDBRANCH   9  10
BRANCH   4   3
ATOM      3  O   UNL     1      15.255  67.074 -14.120  0.00  0.00    +0.000 OA
BRANCH   3   2
ATOM      1  O   UNL     1      16.729  66.625 -13.833  0.00  0.00    +0.000 OA
ATOM      2  C   UNL     1      16.425  66.685 -13.538  0.00  0.00    +0.000 C 
BRANCH   2  31
ATOM     31  C   UNL     1      17.028  67.034 -12.273  0.00  0.00    +0.000 A 
ATOM     32  C   UNL     1      18.157  66.326 -11.927  0.00  0.00    +0.000 A 
ATOM     33  C   UNL     1      18.569  66.388 -10.604  0.00  0.00    +0.000 A 
ATOM     34  O   UNL     1      19.214  65.334  -9.985  0.00  0.00    +0.000 OA
ATOM     35  C   UNL     1      18.168  67.518  -9.903  0.00  0.00    +0.000 A 
ATOM     36  O   UNL     1      18.208  67.511  -8.506  0.00  0.00    +0.000 OA
ATOM     37  C   UNL     1      17.313  68.464 -10.456  0.00  0.00    +0.000 A 
ATOM     38  O   UNL     1      17.151  69.714  -9.899  0.00  0.00    +0.000 OA
ATOM     39  C   UNL     1      16.940  68.322 -11.771  0.00  0.00    +0.000 A 
ENDBRANCH   2  31
ENDBRANCH   3   2
ENDBRANCH   4   3
BRANCH  13  14
ATOM     14  O   UNL     1      14.631  64.794 -15.266  0.00  0.00    +0.000 OA
BRANCH  14  15
ATOM     15  C   UNL     1      14.492  63.471 -15.453  0.00  0.00    +0.000 A 
ATOM     16  C   UNL     1      15.196  62.434 -14.857  0.00  0.00    +0.000 A 
ATOM     17  C   UNL     1      15.852  61.473 -15.626  0.00  0.00    +0.000 A 
ATOM     18  C   UNL     1      15.823  61.518 -17.018  0.00  0.00    +0.000 A 
ATOM     29  C   UNL     1      14.662  62.133 -17.484  0.00  0.00    +0.000 A 
ATOM     30  C   UNL     1      14.046  63.133 -16.732  0.00  0.00    +0.000 A 
BRANCH  18  19
ATOM     19  C   UNL     1      17.068  61.578 -17.809  0.00  0.00    +0.000 C 
ATOM     20  C   UNL     1      17.623  60.377 -17.990  0.00  0.00    +0.000 C 
BRANCH  20  21
ATOM     21  C   UNL     1      16.759  59.426 -18.705  0.00  0.00    +0.000 A 
ATOM     22  C   UNL     1      16.438  58.254 -18.034  0.00  0.00    +0.000 A 
ATOM     23  C   UNL     1      16.441  57.016 -18.668  0.00  0.00    +0.000 A 
ATOM     24  O   UNL     1      16.272  55.833 -17.983  0.00  0.00    +0.000 OA
ATOM     25  C   UNL     1      16.503  56.998 -20.045  0.00  0.00    +0.000 A 
ATOM     26  C   UNL     1      16.669  58.150 -20.779  0.00  0.00    +0.000 A 
ATOM     27  O   UNL     1      16.990  58.037 -22.119  0.00  0.00    +0.000 OA
ATOM     28  C   UNL     1      16.841  59.317 -20.088  0.00  0.00    +0.000 A 
ENDBRANCH  20  21
ENDBRANCH  18  19
ENDBRANCH  14  15
ENDBRANCH  13  14
TORSDOF 8
ENDMDL
MODEL 6
REMARK VINA RESULT:      -7.3     24.548     28.884
REMARK  Name = 
REMARK  8 active torsions:
REMARK  status: ('A' for Active; 'I' for Inactive)
REMARK    1  A    between atoms: C_2  and  O_3
REMARK    2  A    between atoms: C_2  and  C_31
REMARK    3  A    between atoms: O_3  and  C_4
REMARK    4  A    between atoms: C_9  and  C_10
REMARK    5  A    between atoms: C_13  and  O_14
REMARK    6  A    between atoms: O_14  and  C_15
REMARK    7  A    between atoms: C_18  and  C_19
REMARK    8  A    between atoms: C_20  and  C_21
REMARK                            x       y       z     vdW  Elec       q    Type
REMARK                         _______ _______ _______ _____ _____    ______ ____
ROOT
ATOM      4  C   UNL     1      25.373  37.408  21.272  0.00  0.00    +0.000 C 
ATOM      5  C   UNL     1      26.106  36.243  20.276  0.00  0.00    +0.000 C 
ATOM      6  O   UNL     1      25.588  35.124  21.130  0.00  0.00    +0.000 OA
ATOM      7  C   UNL     1      24.829  36.036  19.182  0.00  0.00    +0.000 C 
ATOM      8  O   UNL     1      25.700  35.191  18.304  0.00  0.00    +0.000 OA
ATOM      9  C   UNL     1      25.147  37.407  18.203  0.00  0.00    +0.000 C 
ATOM     12  O   UNL     1      24.543  38.357  19.198  0.00  0.00    +0.000 OA
ATOM     13  C   UNL     1      25.689  38.677  20.136  0.00  0.00    +0.000 C 
ENDROOT
BRANCH   9  10
ATOM     10  C   UNL     1      26.730  37.595  18.594  0.00  0.00    +0.000 C 
ATOM     11  O   UNL     1      27.337  38.008  17.434  0.00  0.00    +0.000 OA
ENDBRANCH   9  10
BRANCH   4   3
ATOM      3  O   UNL     1      23.916  37.180  20.921  0.00  0.00    +0.000 OA
BRANCH   3   2
ATOM      1  O   UNL     1      22.867  37.582  22.014  0.00  0.00    +0.000 OA
ATOM      2  C   UNL     1      23.165  37.277  22.055  0.00  0.00    +0.000 C 
BRANCH   2  31
ATOM     31  C   UNL     1      22.723  36.279  23.000  0.00  0.00    +0.000 A 
ATOM     32  C   UNL     1      22.920  34.968  22.629  0.00  0.00    +0.000 A 
ATOM     33  C   UNL     1      22.226  33.994  23.333  0.00  0.00    +0.000 A 
ATOM     34  O   UNL     1      21.818  32.812  22.743  0.00  0.00    +0.000 OA
ATOM     35  C   UNL     1      21.845  34.343  24.622  0.00  0.00    +0.000 A 
ATOM     36  O   UNL     1      20.851  33.604  25.269  0.00  0.00    +0.000 OA
ATOM     37  C   UNL     1      22.043  35.621  25.129  0.00  0.00    +0.000 A 
ATOM     38  O   UNL     1      21.951  35.893  26.477  0.00  0.00    +0.000 OA
ATOM     39  C   UNL     1      22.728  36.532  24.362  0.00  0.00    +0.000 A 
ENDBRANCH   2  31
ENDBRANCH   3   2
ENDBRANCH   4   3
BRANCH  13  14
ATOM     14  O   UNL     1      24.844  39.637  20.986  0.00  0.00    +0.000 OA
BRANCH  14  15
ATOM     15  C   UNL     1      24.994  40.970  20.933  0.00  0.00    +0.000 A 
ATOM     16  C   UNL     1      24.047  41.958  21.166  0.00  0.00    +0.000 A 
ATOM     17  C   UNL     1      23.784  42.943  20.213  0.00  0.00    +0.000 A 
ATOM     18  C   UNL     1      24.464  42.972  18.997  0.00  0.00    +0.000 A 
ATOM     29  C   UNL     1      25.734  42.409  19.109  0.00  0.00    +0.000 A 
ATOM     30  C   UNL     1      25.971  41.386  20.027  0.00  0.00    +0.000 A 
BRANCH  18  19
ATOM     19  C   UNL     1      23.738  42.925  17.713  0.00  0.00    +0.000 C 
ATOM     20  C   UNL     1      23.257  44.115  17.347  0.00  0.00    +0.000 C 
BRANCH  20  21
ATOM     21  C   UNL     1      24.293  45.143  17.165  0.00  0.00    +0.000 A 
ATOM     22  C   UNL     1      25.293  44.860  16.245  0.00  0.00    +0.000 A 
ATOM     23  C   UNL     1      26.631  45.140  16.499  0.00  0.00    +0.000 A 
ATOM     24  O   UNL     1      27.646  44.730  15.662  0.00  0.00    +0.000 OA
ATOM     25  C   UNL     1      26.926  45.955  17.572  0.00  0.00    +0.000 A 
ATOM     26  C   UNL     1      25.952  46.395  18.437  0.00  0.00    +0.000 A 
ATOM     27  O   UNL     1      26.343  46.978  19.628  0.00  0.00    +0.000 OA
ATOM     28  C   UNL     1      24.679  45.937  18.238  0.00  0.00    +0.000 A 
ENDBRANCH  20  21
ENDBRANCH  18  19
ENDBRANCH  14  15
ENDBRANCH  13  14
TORSDOF 8
ENDMDL
MODEL 7
REMARK VINA RESULT:      -7.0      2.682      7.242
REMARK  Name = 
REMARK  8 active torsions:
REMARK  status: ('A' for Active; 'I' for Inactive)
REMARK    1  A    between atoms: C_2  and  O_3
REMARK    2  A    between atoms: C_2  and  C_31
REMARK    3  A    between atoms: O_3  and  C_4
REMARK    4  A    between atoms: C_9  and  C_10
REMARK    5  A    between atoms: C_13  and  O_14
REMARK    6  A    between atoms: O_14  and  C_15
REMARK    7  A    between atoms: C_18  and  C_19
REMARK    8  A    between atoms: C_20  and  C_21
REMARK                            x       y       z     vdW  Elec       q    Type
REMARK                         _______ _______ _______ _____ _____    ______ ____
ROOT
ATOM      4  C   UNL     1      17.487  66.329  12.841  0.00  0.00    +0.000 C 
ATOM      5  C   UNL     1      16.298  66.658  11.673  0.00  0.00    +0.000 C 
ATOM      6  O   UNL     1      15.489  67.449  12.656  0.00  0.00    +0.000 OA
ATOM      7  C   UNL     1      16.975  68.079  11.045  0.00  0.00    +0.000 C 
ATOM      8  O   UNL     1      15.962  68.091   9.942  0.00  0.00    +0.000 OA
ATOM      9  C   UNL     1      18.121  67.341  10.005  0.00  0.00    +0.000 C 
ATOM     12  O   UNL     1      19.064  67.029  11.133  0.00  0.00    +0.000 OA
ATOM     13  C   UNL     1      18.575  65.692  11.653  0.00  0.00    +0.000 C 
ENDROOT
BRANCH   9  10
ATOM     10  C   UNL     1      17.387  65.880   9.868  0.00  0.00    +0.000 C 
ATOM     11  O   UNL     1      17.453  65.571   8.533  0.00  0.00    +0.000 OA
ENDBRANCH   9  10
BRANCH   4   3
ATOM      3  O   UNL     1      18.116  67.702  12.976  0.00  0.00    +0.000 OA
BRANCH   3   2
ATOM      1  O   UNL     1      18.139  67.675  14.543  0.00  0.00    +0.000 OA
ATOM      2  C   UNL     1      18.340  67.961  14.295  0.00  0.00    +0.000 C 
BRANCH   2  31
ATOM     31  C   UNL     1      19.495  68.484  14.986  0.00  0.00    +0.000 A 
ATOM     32  C   UNL     1      20.084  67.641  15.901  0.00  0.00    +0.000 A 
ATOM     33  C   UNL     1      20.968  68.203  16.810  0.00  0.00    +0.000 A 
ATOM     34  O   UNL     1      21.129  67.698  18.087  0.00  0.00    +0.000 OA
ATOM     35  C   UNL     1      21.575  69.384  16.405  0.00  0.00    +0.000 A 
ATOM     36  O   UNL     1      22.180  70.209  17.357  0.00  0.00    +0.000 OA
ATOM     37  C   UNL     1      21.230  70.021  15.219  0.00  0.00    +0.000 A 
ATOM     38  O   UNL     1      22.017  71.009  14.666  0.00  0.00    +0.000 OA
ATOM     39  C   UNL     1      20.334  69.405  14.379  0.00  0.00    +0.000 A 
ENDBRANCH   2  31
ENDBRANCH   3   2
ENDBRANCH   4   3
BRANCH  13  14
ATOM     14  O   UNL     1      19.676  65.604  12.720  0.00  0.00    +0.000 OA
BRANCH  14  15
ATOM     15  C   UNL     1      20.427  64.504  12.894  0.00  0.00    +0.000 A 
ATOM     16  C   UNL     1      20.217  63.225  12.398  0.00  0.00    +0.000 A 
ATOM     17  C   UNL     1      20.166  62.121  13.250  0.00  0.00    +0.000 A 
ATOM     18  C   UNL     1      20.325  62.263  14.627  0.00  0.00    +0.000 A 
ATOM     29  C   UNL     1      21.117  63.367  14.937  0.00  0.00    +0.000 A 
ATOM     30  C   UNL     1      21.117  64.488  14.107  0.00  0.00    +0.000 A 
BRANCH  18  19
ATOM     19  C   UNL     1      19.289  61.799  15.569  0.00  0.00    +0.000 C 
ATOM     20  C   UNL     1      19.626  60.669  16.194  0.00  0.00    +0.000 C 
BRANCH  20  21
ATOM     21  C   UNL     1      20.854  60.777  16.996  0.00  0.00    +0.000 A 
ATOM     22  C   UNL     1      21.910  59.955  16.628  0.00  0.00    +0.000 A 
ATOM     23  C   UNL     1      22.682  59.281  17.568  0.00  0.00    +0.000 A 
ATOM     24  O   UNL     1      23.633  58.349  17.214  0.00  0.00    +0.000 OA
ATOM     25  C   UNL     1      22.558  59.653  18.890  0.00  0.00    +0.000 A 
ATOM     26  C   UNL     1      21.627  60.580  19.298  0.00  0.00    +0.000 A 
ATOM     27  O   UNL     1      21.374  60.709  20.651  0.00  0.00    +0.000 OA
ATOM     28  C   UNL     1      20.774  61.075  18.351  0.00  0.00    +0.000 A 
ENDBRANCH  20  21
ENDBRANCH  18  19
ENDBRANCH  14  15
ENDBRANCH  13  14
TORSDOF 8
ENDMDL
MODEL 8
REMARK VINA RESULT:      -7.0      4.671      8.061
REMARK  Name = 
REMARK  8 active torsions:
REMARK  status: ('A' for Active; 'I' for Inactive)
REMARK    1  A    between atoms: C_2  and  O_3
REMARK    2  A    between atoms: C_2  and  C_31
REMARK    3  A    between atoms: O_3  and  C_4
REMARK    4  A    between atoms: C_9  and  C_10
REMARK    5  A    between atoms: C_13  and  O_14
REMARK    6  A    between atoms: O_14  and  C_15
REMARK    7  A    between atoms: C_18  and  C_19
REMARK    8  A    between atoms: C_20  and  C_21
REMARK                            x       y       z     vdW  Elec       q    Type
REMARK                         _______ _______ _______ _____ _____    ______ ____
ROOT
ATOM      4  C   UNL     1      20.316  69.761  15.380  0.00  0.00    +0.000 C 
ATOM      5  C   UNL     1      20.140  68.305  16.236  0.00  0.00    +0.000 C 
ATOM      6  O   UNL     1      18.778  68.075  15.652  0.00  0.00    +0.000 OA
ATOM      7  C   UNL     1      20.837  67.273  15.087  0.00  0.00    +0.000 C 
ATOM      8  O   UNL     1      20.798  66.138  16.061  0.00  0.00    +0.000 OA
ATOM      9  C   UNL     1      22.478  67.575  15.481  0.00  0.00    +0.000 C 
ATOM     12  O   UNL     1      22.494  68.892  14.756  0.00  0.00    +0.000 OA
ATOM     13  C   UNL     1      21.994  69.880  15.790  0.00  0.00    +0.000 C 
ENDROOT
BRANCH   9  10
ATOM     10  C   UNL     1      22.242  68.122  17.009  0.00  0.00    +0.000 C 
ATOM     11  O   UNL     1      23.220  67.521  17.759  0.00  0.00    +0.000 OA
ENDBRANCH   9  10
BRANCH   4   3
ATOM      3  O   UNL     1      20.488  69.225  13.973  0.00  0.00    +0.000 OA
BRANCH   3   2
ATOM      1  O   UNL     1      19.705  70.200  13.028  0.00  0.00    +0.000 OA
ATOM      2  C   UNL     1      19.569  69.814  13.156  0.00  0.00    +0.000 C 
BRANCH   2  31
ATOM     31  C   UNL     1      18.663  69.261  12.177  0.00  0.00    +0.000 A 
ATOM     32  C   UNL     1      18.644  69.887  10.951  0.00  0.00    +0.000 A 
ATOM     33  C   UNL     1      17.575  69.611  10.111  0.00  0.00    +0.000 A 
ATOM     34  O   UNL     1      17.083  70.544   9.218  0.00  0.00    +0.000 OA
ATOM     35  C   UNL     1      16.945  68.392  10.322  0.00  0.00    +0.000 A 
ATOM     36  O   UNL     1      15.667  68.178   9.798  0.00  0.00    +0.000 OA
ATOM     37  C   UNL     1      17.288  67.558  11.380  0.00  0.00    +0.000 A 
ATOM     38  O   UNL     1      16.891  66.239  11.426  0.00  0.00    +0.000 OA
ATOM     39  C   UNL     1      18.350  67.911  12.176  0.00  0.00    +0.000 A 
ENDBRANCH   2  31
ENDBRANCH   3   2
ENDBRANCH   4   3
BRANCH  13  14
ATOM     14  O   UNL     1      22.133  71.079  14.842  0.00  0.00    +0.000 OA
BRANCH  14  15
ATOM     15  C   UNL     1      23.212  71.879  14.843  0.00  0.00    +0.000 A 
ATOM     16  C   UNL     1      23.409  73.067  15.533  0.00  0.00    +0.000 A 
ATOM     17  C   UNL     1      23.769  74.237  14.865  0.00  0.00    +0.000 A 
ATOM     18  C   UNL     1      23.946  74.255  13.482  0.00  0.00    +0.000 A 
ATOM     29  C   UNL     1      24.345  73.009  13.003  0.00  0.00    +0.000 A 
ATOM     30  C   UNL     1      23.932  71.843  13.648  0.00  0.00    +0.000 A 
BRANCH  18  19
ATOM     19  C   UNL     1      23.170  75.171  12.623  0.00  0.00    +0.000 C 
ATOM     20  C   UNL     1      23.938  76.065  11.996  0.00  0.00    +0.000 C 
BRANCH  20  21
ATOM     21  C   UNL     1      24.943  75.463  11.107  0.00  0.00    +0.000 A 
ATOM     22  C   UNL     1      26.217  76.012  11.150  0.00  0.00    +0.000 A 
ATOM     23  C   UNL     1      26.958  76.248   9.997  0.00  0.00    +0.000 A 
ATOM     24  O   UNL     1      28.157  76.927  10.013  0.00  0.00    +0.000 OA
ATOM     25  C   UNL     1      26.520  75.676   8.821  0.00  0.00    +0.000 A 
ATOM     26  C   UNL     1      25.332  74.985   8.750  0.00  0.00    +0.000 A 
ATOM     27  O   UNL     1      24.826  74.672   7.502  0.00  0.00    +0.000 OA
ATOM     28  C   UNL     1      24.560  74.943   9.877  0.00  0.00    +0.000 A 
ENDBRANCH  20  21
ENDBRANCH  18  19
ENDBRANCH  14  15
ENDBRANCH  13  14
TORSDOF 8
ENDMDL
MODEL 9
REMARK VINA RESULT:      -7.0     33.393     35.946
REMARK  Name = 
REMARK  8 active torsions:
REMARK  status: ('A' for Active; 'I' for Inactive)
REMARK    1  A    between atoms: C_2  and  O_3
REMARK    2  A    between atoms: C_2  and  C_31
REMARK    3  A    between atoms: O_3  and  C_4
REMARK    4  A    between atoms: C_9  and  C_10
REMARK    5  A    between atoms: C_13  and  O_14
REMARK    6  A    between atoms: O_14  and  C_15
REMARK    7  A    between atoms: C_18  and  C_19
REMARK    8  A    between atoms: C_20  and  C_21
REMARK                            x       y       z     vdW  Elec       q    Type
REMARK                         _______ _______ _______ _____ _____    ______ ____
ROOT
ATOM      4  C   UNL     1     -11.086  72.552  24.114  0.00  0.00    +0.000 C 
ATOM      5  C   UNL     1      -9.979  73.281  23.052  0.00  0.00    +0.000 C 
ATOM      6  O   UNL     1      -9.093  72.072  23.075  0.00  0.00    +0.000 OA
ATOM      7  C   UNL     1     -10.682  72.772  21.597  0.00  0.00    +0.000 C 
ATOM      8  O   UNL     1      -9.750  73.651  20.822  0.00  0.00    +0.000 OA
ATOM      9  C   UNL     1     -11.908  73.967  21.509  0.00  0.00    +0.000 C 
ATOM     12  O   UNL     1     -12.771  73.272  22.523  0.00  0.00    +0.000 OA
ATOM     13  C   UNL     1     -12.263  73.795  23.851  0.00  0.00    +0.000 C 
ENDROOT
BRANCH   9  10
ATOM     10  C   UNL     1     -11.202  75.079  22.487  0.00  0.00    +0.000 C 
ATOM     11  O   UNL     1     -11.485  76.292  21.912  0.00  0.00    +0.000 OA
ENDBRANCH   9  10
BRANCH   4   3
ATOM      3  O   UNL     1     -11.687  71.505  23.196  0.00  0.00    +0.000 OA
BRANCH   3   2
ATOM      1  O   UNL     1     -11.592  70.341  24.241  0.00  0.00    +0.000 OA
ATOM      2  C   UNL     1     -11.651  70.294  23.819  0.00  0.00    +0.000 C 
BRANCH   2  31
ATOM     31  C   UNL     1     -12.352  69.059  23.554  0.00  0.00    +0.000 A 
ATOM     32  C   UNL     1     -13.210  68.629  24.540  0.00  0.00    +0.000 A 
ATOM     33  C   UNL     1     -13.641  67.312  24.482  0.00  0.00    +0.000 A 
ATOM     34  O   UNL     1     -13.936  66.584  25.620  0.00  0.00    +0.000 OA
ATOM     35  C   UNL     1     -13.621  66.729  23.222  0.00  0.00    +0.000 A 
ATOM     36  O   UNL     1     -13.678  65.338  23.106  0.00  0.00    +0.000 OA
ATOM     37  C   UNL     1     -13.094  67.384  22.115  0.00  0.00    +0.000 A 
ATOM     38  O   UNL     1     -13.337  66.953  20.828  0.00  0.00    +0.000 OA
ATOM     39  C   UNL     1     -12.676  68.685  22.260  0.00  0.00    +0.000 A 
ENDBRANCH   2  31
ENDBRANCH   3   2
ENDBRANCH   4   3
BRANCH  13  14
ATOM     14  O   UNL     1     -13.285  72.987  24.663  0.00  0.00    +0.000 OA
BRANCH  14  15
ATOM     15  C   UNL     1     -13.984  73.520  25.679  0.00  0.00    +0.000 A 
ATOM     16  C   UNL     1     -14.620  72.870  26.728  0.00  0.00    +0.000 A 
ATOM     17  C   UNL     1     -15.974  73.079  26.990  0.00  0.00    +0.000 A 
ATOM     18  C   UNL     1     -16.735  73.948  26.211  0.00  0.00    +0.000 A 
ATOM     29  C   UNL     1     -15.951  74.961  25.663  0.00  0.00    +0.000 A 
ATOM     30  C   UNL     1     -14.612  74.723  25.352  0.00  0.00    +0.000 A 
BRANCH  18  19
ATOM     19  C   UNL     1     -17.951  73.486  25.514  0.00  0.00    +0.000 C 
ATOM     20  C   UNL     1     -17.749  73.266  24.213  0.00  0.00    +0.000 C 
BRANCH  20  21
ATOM     21  C   UNL     1     -16.733  72.239  23.936  0.00  0.00    +0.000 A 
ATOM     22  C   UNL     1     -16.006  72.387  22.764  0.00  0.00    +0.000 A 
ATOM     23  C   UNL     1     -15.718  71.309  21.933  0.00  0.00    +0.000 A 
ATOM     24  O   UNL     1     -15.129  71.463  20.697  0.00  0.00    +0.000 OA
ATOM     25  C   UNL     1     -15.934  70.040  22.426  0.00  0.00    +0.000 A 
ATOM     26  C   UNL     1     -16.516  69.829  23.655  0.00  0.00    +0.000 A 
ATOM     27  O   UNL     1     -16.944  68.552  23.970  0.00  0.00    +0.000 OA
ATOM     28  C   UNL     1     -16.942  70.928  24.347  0.00  0.00    +0.000 A 
ENDBRANCH  20  21
ENDBRANCH  18  19
ENDBRANCH  14  15
ENDBRANCH  13  14
TORSDOF 8
ENDMDL
MODEL 10
REMARK VINA RESULT:      -7.0     40.184     44.436
REMARK  Name = 
REMARK  8 active torsions:
REMARK  status: ('A' for Active; 'I' for Inactive)
REMARK    1  A    between atoms: C_2  and  O_3
REMARK    2  A    between atoms: C_2  and  C_31
REMARK    3  A    between atoms: O_3  and  C_4
REMARK    4  A    between atoms: C_9  and  C_10
REMARK    5  A    between atoms: C_13  and  O_14
REMARK    6  A    between atoms: O_14  and  C_15
REMARK    7  A    between atoms: C_18  and  C_19
REMARK    8  A    between atoms: C_20  and  C_21
REMARK                            x       y       z     vdW  Elec       q    Type
REMARK                         _______ _______ _______ _____ _____    ______ ____
ROOT
ATOM      4  C   UNL     1       6.376  37.180 -17.250  0.00  0.00    +0.000 C 
ATOM      5  C   UNL     1       5.327  35.924 -16.795  0.00  0.00    +0.000 C 
ATOM      6  O   UNL     1       5.849  35.035 -17.884  0.00  0.00    +0.000 OA
ATOM      7  C   UNL     1       6.340  35.175 -15.661  0.00  0.00    +0.000 C 
ATOM      8  O   UNL     1       5.220  34.278 -15.232  0.00  0.00    +0.000 OA
ATOM      9  C   UNL     1       6.022  36.227 -14.346  0.00  0.00    +0.000 C 
ATOM     12  O   UNL     1       6.918  37.305 -14.887  0.00  0.00    +0.000 OA
ATOM     13  C   UNL     1       6.018  38.090 -15.820  0.00  0.00    +0.000 C 
ENDROOT
BRANCH   9  10
ATOM     10  C   UNL     1       4.578  36.804 -14.868  0.00  0.00    +0.000 C 
ATOM     11  O   UNL     1       3.748  36.732 -13.777  0.00  0.00    +0.000 OA
ENDBRANCH   9  10
BRANCH   4   3
ATOM      3  O   UNL     1       7.701  36.600 -16.795  0.00  0.00    +0.000 OA
BRANCH   3   2
ATOM      1  O   UNL     1       8.965  36.969 -17.645  0.00  0.00    +0.000 OA
ATOM      2  C   UNL     1       8.621  36.758 -17.788  0.00  0.00    +0.000 C 
BRANCH   2  31
ATOM     31  C   UNL     1       8.991  35.907 -18.895  0.00  0.00    +0.000 A 
ATOM     32  C   UNL     1       8.744  34.563 -18.733  0.00  0.00    +0.000 A 
ATOM     33  C   UNL     1       9.373  33.688 -19.606  0.00  0.00    +0.000 A 
ATOM     34  O   UNL     1       9.740  32.410 -19.228  0.00  0.00    +0.000 OA
ATOM     35  C   UNL     1       9.735  34.224 -20.834  0.00  0.00    +0.000 A 
ATOM     36  O   UNL     1      10.677  33.559 -21.624  0.00  0.00    +0.000 OA
ATOM     37  C   UNL     1       9.583  35.575 -21.123  0.00  0.00    +0.000 A 
ATOM     38  O   UNL     1       9.653  36.057 -22.413  0.00  0.00    +0.000 OA
ATOM     39  C   UNL     1       8.962  36.378 -20.198  0.00  0.00    +0.000 A 
ENDBRANCH   2  31
ENDBRANCH   3   2
ENDBRANCH   4   3
BRANCH  13  14
ATOM     14  O   UNL     1       7.122  39.090 -16.189  0.00  0.00    +0.000 OA
BRANCH  14  15
ATOM     15  C   UNL     1       6.883  40.401 -16.357  0.00  0.00    +0.000 A 
ATOM     16  C   UNL     1       7.664  41.348 -17.006  0.00  0.00    +0.000 A 
ATOM     17  C   UNL     1       8.068  42.515 -16.357  0.00  0.00    +0.000 A 
ATOM     18  C   UNL     1       7.702  42.773 -15.038  0.00  0.00    +0.000 A 
ATOM     29  C   UNL     1       6.492  42.161 -14.716  0.00  0.00    +0.000 A 
ATOM     30  C   UNL     1       6.124  40.964 -15.330  0.00  0.00    +0.000 A 
BRANCH  18  19
ATOM     19  C   UNL     1       8.718  43.012 -13.994  0.00  0.00    +0.000 C 
ATOM     20  C   UNL     1       9.358  44.173 -14.153  0.00  0.00    +0.000 C 
BRANCH  20  21
ATOM     21  C   UNL     1       8.475  45.348 -14.107  0.00  0.00    +0.000 A 
ATOM     22  C   UNL     1       7.488  45.345 -13.132  0.00  0.00    +0.000 A 
ATOM     23  C   UNL     1       6.189  45.764 -13.395  0.00  0.00    +0.000 A 
ATOM     24  O   UNL     1       5.166  45.626 -12.482  0.00  0.00    +0.000 OA
ATOM     25  C   UNL     1       5.957  46.443 -14.572  0.00  0.00    +0.000 A 
ATOM     26  C   UNL     1       6.942  46.612 -15.517  0.00  0.00    +0.000 A 
ATOM     27  O   UNL     1       6.580  47.060 -16.774  0.00  0.00    +0.000 OA
ATOM     28  C   UNL     1       8.151  46.019 -15.280  0.00  0.00    +0.000 A 
ENDBRANCH  20  21
ENDBRANCH  18  19
ENDBRANCH  14  15
ENDBRANCH  13  14
TORSDOF 8
ENDMDL
