MODEL 1
REMARK VINA RESULT:      -7.0      0.000      0.000
REMARK  Name = 
REMARK  5 active torsions:
REMARK  status: ('A' for Active; 'I' for Inactive)
REMARK    1  A    between atoms: C_2  and  C_3
REMARK    2  A    between atoms: C_5  and  O_6
REMARK    3  A    between atoms: O_6  and  C_7
REMARK    4  A    between atoms: C_10  and  C_11
REMARK    5  A    between atoms: C_12  and  C_13
REMARK                            x       y       z     vdW  Elec       q    Type
REMARK                         _______ _______ _______ _____ _____    ______ ____
ROOT
ATOM      7  C   UNL     1       5.987  53.210  19.696  0.00  0.00    +0.000 A 
ATOM      8  C   UNL     1       5.646  53.465  21.024  0.00  0.00    +0.000 A 
ATOM      9  C   UNL     1       6.591  53.631  21.985  0.00  0.00    +0.000 A 
ATOM     10  C   UNL     1       7.797  54.205  21.581  0.00  0.00    +0.000 A 
ATOM     21  C   UNL     1       8.168  53.854  20.296  0.00  0.00    +0.000 A 
ATOM     22  C   UNL     1       7.296  53.140  19.468  0.00  0.00    +0.000 A 
ENDROOT
BRANCH  10  11
ATOM     11  C   UNL     1       7.995  55.433  22.298  0.00  0.00    +0.000 C 
ATOM     12  C   UNL     1       8.194  55.225  23.605  0.00  0.00    +0.000 C 
BRANCH  12  13
ATOM     13  C   UNL     1       9.662  55.067  23.607  0.00  0.00    +0.000 A 
ATOM     14  C   UNL     1      10.345  56.049  22.889  0.00  0.00    +0.000 A 
ATOM     15  C   UNL     1      11.486  56.672  23.378  0.00  0.00    +0.000 A 
ATOM     16  O   UNL     1      11.882  57.952  22.967  0.00  0.00    +0.000 OA
ATOM     17  C   UNL     1      11.983  56.209  24.592  0.00  0.00    +0.000 A 
ATOM     18  C   UNL     1      11.464  55.035  25.120  0.00  0.00    +0.000 A 
ATOM     19  O   UNL     1      11.896  54.672  26.391  0.00  0.00    +0.000 OA
ATOM     20  C   UNL     1      10.325  54.457  24.642  0.00  0.00    +0.000 A 
ENDBRANCH  12  13
ENDBRANCH  10  11
BRANCH   7   6
ATOM      6  O   UNL     1       4.894  52.814  18.994  0.00  0.00    +0.000 OA
BRANCH   6   5
ATOM      3  C   UNL     1       4.298  50.707  16.990  0.00  0.00    +0.000 C 
ATOM      4  O   UNL     1       5.222  50.725  18.149  0.00  0.00    +0.000 OA
ATOM      5  C   UNL     1       4.511  51.363  19.322  0.00  0.00    +0.000 C 
ATOM     23  C   UNL     1       2.912  51.311  18.717  0.00  0.00    +0.000 C 
ATOM     24  O   UNL     1       2.415  52.208  19.829  0.00  0.00    +0.000 OA
ATOM     25  C   UNL     1       2.804  52.500  17.511  0.00  0.00    +0.000 C 
ATOM     26  O   UNL     1       3.038  53.750  18.301  0.00  0.00    +0.000 OA
ATOM     27  C   UNL     1       4.390  52.411  16.910  0.00  0.00    +0.000 C 
ATOM     28  O   UNL     1       3.938  52.472  15.486  0.00  0.00    +0.000 OA
BRANCH   3   2
ATOM      1  O   UNL     1       6.148  49.654  15.889  0.00  0.00    +0.000 OA
ATOM      2  C   UNL     1       5.514  50.640  15.891  0.00  0.00    +0.000 C 
ENDBRANCH   3   2
ENDBRANCH   6   5
ENDBRANCH   7   6
TORSDOF 5
ENDMDL
MODEL 2
REMARK VINA RESULT:      -6.9      1.027      2.701
REMARK  Name = 
REMARK  5 active torsions:
REMARK  status: ('A' for Active; 'I' for Inactive)
REMARK    1  A    between atoms: C_2  and  C_3
REMARK    2  A    between atoms: C_5  and  O_6
REMARK    3  A    between atoms: O_6  and  C_7
REMARK    4  A    between atoms: C_10  and  C_11
REMARK    5  A    between atoms: C_12  and  C_13
REMARK                            x       y       z     vdW  Elec       q    Type
REMARK                         _______ _______ _______ _____ _____    ______ ____
ROOT
ATOM      7  C   UNL     1       5.772  52.865  19.641  0.00  0.00    +0.000 A 
ATOM      8  C   UNL     1       5.455  53.239  20.946  0.00  0.00    +0.000 A 
ATOM      9  C   UNL     1       6.419  53.494  21.869  0.00  0.00    +0.000 A 
ATOM     10  C   UNL     1       7.614  54.033  21.391  0.00  0.00    +0.000 A 
ATOM     21  C   UNL     1       7.961  53.567  20.136  0.00  0.00    +0.000 A 
ATOM     22  C   UNL     1       7.077  52.779  19.395  0.00  0.00    +0.000 A 
ENDROOT
BRANCH  10  11
ATOM     11  C   UNL     1       7.819  55.322  21.990  0.00  0.00    +0.000 C 
ATOM     12  C   UNL     1       7.959  55.242  23.319  0.00  0.00    +0.000 C 
BRANCH  12  13
ATOM     13  C   UNL     1       9.421  55.046  23.400  0.00  0.00    +0.000 A 
ATOM     14  C   UNL     1      10.167  56.022  22.738  0.00  0.00    +0.000 A 
ATOM     15  C   UNL     1      11.293  56.608  23.300  0.00  0.00    +0.000 A 
ATOM     16  O   UNL     1      11.743  57.884  22.934  0.00  0.00    +0.000 OA
ATOM     17  C   UNL     1      11.710  56.114  24.532  0.00  0.00    +0.000 A 
ATOM     18  C   UNL     1      11.134  54.945  25.011  0.00  0.00    +0.000 A 
ATOM     19  O   UNL     1      11.484  54.552  26.297  0.00  0.00    +0.000 OA
ATOM     20  C   UNL     1      10.009  54.403  24.460  0.00  0.00    +0.000 A 
ENDBRANCH  12  13
ENDBRANCH  10  11
BRANCH   7   6
ATOM      6  O   UNL     1       4.669  52.403  18.999  0.00  0.00    +0.000 OA
BRANCH   6   5
ATOM      3  C   UNL     1       1.901  52.622  17.947  0.00  0.00    +0.000 C 
ATOM      4  O   UNL     1       2.840  53.648  18.460  0.00  0.00    +0.000 OA
ATOM      5  C   UNL     1       4.215  53.369  17.893  0.00  0.00    +0.000 C 
ATOM     23  C   UNL     1       3.772  52.263  16.666  0.00  0.00    +0.000 C 
ATOM     24  O   UNL     1       5.217  51.888  16.420  0.00  0.00    +0.000 OA
ATOM     25  C   UNL     1       3.372  50.806  17.438  0.00  0.00    +0.000 C 
ATOM     26  O   UNL     1       4.682  50.425  18.054  0.00  0.00    +0.000 OA
ATOM     27  C   UNL     1       2.716  51.438  18.871  0.00  0.00    +0.000 C 
ATOM     28  O   UNL     1       1.564  50.485  18.857  0.00  0.00    +0.000 OA
BRANCH   3   2
ATOM      1  O   UNL     1       0.019  53.613  19.050  0.00  0.00    +0.000 OA
ATOM      2  C   UNL     1       0.856  52.806  19.198  0.00  0.00    +0.000 C 
ENDBRANCH   3   2
ENDBRANCH   6   5
ENDBRANCH   7   6
TORSDOF 5
ENDMDL
MODEL 3
REMARK VINA RESULT:      -6.8     12.570     16.085
REMARK  Name = 
REMARK  5 active torsions:
REMARK  status: ('A' for Active; 'I' for Inactive)
REMARK    1  A    between atoms: C_2  and  C_3
REMARK    2  A    between atoms: C_5  and  O_6
REMARK    3  A    between atoms: O_6  and  C_7
REMARK    4  A    between atoms: C_10  and  C_11
REMARK    5  A    between atoms: C_12  and  C_13
REMARK                            x       y       z     vdW  Elec       q    Type
REMARK                         _______ _______ _______ _____ _____    ______ ____
ROOT
ATOM      7  C   UNL     1       8.459  59.474   5.451  0.00  0.00    +0.000 A 
ATOM      8  C   UNL     1       8.781  59.782   6.772  0.00  0.00    +0.000 A 
ATOM      9  C   UNL     1       7.986  60.575   7.535  0.00  0.00    +0.000 A 
ATOM     10  C   UNL     1       6.616  60.519   7.276  0.00  0.00    +0.000 A 
ATOM     21  C   UNL     1       6.319  60.318   5.940  0.00  0.00    +0.000 A 
ATOM     22  C   UNL     1       7.328  60.026   5.018  0.00  0.00    +0.000 A 
ENDROOT
BRANCH  10  11
ATOM     11  C   UNL     1       5.934  60.064   8.454  0.00  0.00    +0.000 C 
ATOM     12  C   UNL     1       5.047  59.099   8.180  0.00  0.00    +0.000 C 
BRANCH  12  13
ATOM     13  C   UNL     1       5.923  57.917   8.312  0.00  0.00    +0.000 A 
ATOM     14  C   UNL     1       6.437  57.725   9.595  0.00  0.00    +0.000 A 
ATOM     15  C   UNL     1       6.465  56.480  10.209  0.00  0.00    +0.000 A 
ATOM     16  O   UNL     1       6.477  56.324  11.601  0.00  0.00    +0.000 OA
ATOM     17  C   UNL     1       6.036  55.396   9.449  0.00  0.00    +0.000 A 
ATOM     18  C   UNL     1       5.828  55.576   8.088  0.00  0.00    +0.000 A 
ATOM     19  O   UNL     1       5.282  54.506   7.389  0.00  0.00    +0.000 OA
ATOM     20  C   UNL     1       5.775  56.811   7.512  0.00  0.00    +0.000 A 
ENDBRANCH  12  13
ENDBRANCH  10  11
BRANCH   7   6
ATOM      6  O   UNL     1       9.521  58.908   4.823  0.00  0.00    +0.000 OA
BRANCH   6   5
ATOM      3  C   UNL     1      11.198  56.460   4.733  0.00  0.00    +0.000 C 
ATOM      4  O   UNL     1       9.786  56.668   5.135  0.00  0.00    +0.000 OA
ATOM      5  C   UNL     1       9.131  57.593   4.132  0.00  0.00    +0.000 C 
ATOM     23  C   UNL     1      10.314  57.518   2.898  0.00  0.00    +0.000 C 
ATOM     24  O   UNL     1       9.671  58.667   2.152  0.00  0.00    +0.000 OA
ATOM     25  C   UNL     1      11.645  58.420   3.438  0.00  0.00    +0.000 C 
ATOM     26  O   UNL     1      11.058  59.793   3.534  0.00  0.00    +0.000 OA
ATOM     27  C   UNL     1      11.527  58.096   5.101  0.00  0.00    +0.000 C 
ATOM     28  O   UNL     1      12.999  57.875   5.242  0.00  0.00    +0.000 OA
BRANCH   3   2
ATOM      1  O   UNL     1      11.338  55.024   6.646  0.00  0.00    +0.000 OA
ATOM      2  C   UNL     1      11.680  56.074   6.252  0.00  0.00    +0.000 C 
ENDBRANCH   3   2
ENDBRANCH   6   5
ENDBRANCH   7   6
TORSDOF 5
ENDMDL
MODEL 4
REMARK VINA RESULT:      -6.8     13.434     15.757
REMARK  Name = 
REMARK  5 active torsions:
REMARK  status: ('A' for Active; 'I' for Inactive)
REMARK    1  A    between atoms: C_2  and  C_3
REMARK    2  A    between atoms: C_5  and  O_6
REMARK    3  A    between atoms: O_6  and  C_7
REMARK    4  A    between atoms: C_10  and  C_11
REMARK    5  A    between atoms: C_12  and  C_13
REMARK                            x       y       z     vdW  Elec       q    Type
REMARK                         _______ _______ _______ _____ _____    ______ ____
ROOT
ATOM      7  C   UNL     1       8.487  58.685   7.539  0.00  0.00    +0.000 A 
ATOM      8  C   UNL     1       7.435  58.009   8.158  0.00  0.00    +0.000 A 
ATOM      9  C   UNL     1       6.388  58.673   8.711  0.00  0.00    +0.000 A 
ATOM     10  C   UNL     1       6.021  59.875   8.106  0.00  0.00    +0.000 A 
ATOM     21  C   UNL     1       7.094  60.579   7.591  0.00  0.00    +0.000 A 
ATOM     22  C   UNL     1       8.370  60.010   7.549  0.00  0.00    +0.000 A 
ENDROOT
BRANCH  10  11
ATOM     11  C   UNL     1       4.671  59.767   7.630  0.00  0.00    +0.000 C 
ATOM     12  C   UNL     1       3.810  59.495   8.618  0.00  0.00    +0.000 C 
BRANCH  12  13
ATOM     13  C   UNL     1       3.479  60.872   9.040  0.00  0.00    +0.000 A 
ATOM     14  C   UNL     1       3.113  61.719   7.993  0.00  0.00    +0.000 A 
ATOM     15  C   UNL     1       2.026  62.579   8.076  0.00  0.00    +0.000 A 
ATOM     16  O   UNL     1       1.336  63.035   6.944  0.00  0.00    +0.000 OA
ATOM     17  C   UNL     1       1.356  62.630   9.295  0.00  0.00    +0.000 A 
ATOM     18  C   UNL     1       1.931  62.012  10.397  0.00  0.00    +0.000 A 
ATOM     19  O   UNL     1       1.176  61.977  11.563  0.00  0.00    +0.000 OA
ATOM     20  C   UNL     1       2.981  61.148  10.288  0.00  0.00    +0.000 A 
ENDBRANCH  12  13
ENDBRANCH  10  11
BRANCH   7   6
ATOM      6  O   UNL     1       9.527  57.841   7.316  0.00  0.00    +0.000 OA
BRANCH   6   5
ATOM      3  C   UNL     1      12.422  57.808   6.662  0.00  0.00    +0.000 C 
ATOM      4  O   UNL     1      11.588  58.805   7.376  0.00  0.00    +0.000 OA
ATOM      5  C   UNL     1      10.664  58.071   8.323  0.00  0.00    +0.000 C 
ATOM     23  C   UNL     1      11.427  56.540   8.296  0.00  0.00    +0.000 C 
ATOM     24  O   UNL     1      10.263  55.898   9.018  0.00  0.00    +0.000 OA
ATOM     25  C   UNL     1      11.072  55.839   6.793  0.00  0.00    +0.000 C 
ATOM     26  O   UNL     1       9.584  55.694   6.874  0.00  0.00    +0.000 OA
ATOM     27  C   UNL     1      11.028  57.249   5.847  0.00  0.00    +0.000 C 
ATOM     28  O   UNL     1      11.804  56.621   4.734  0.00  0.00    +0.000 OA
BRANCH   3   2
ATOM      1  O   UNL     1      13.090  59.878   5.657  0.00  0.00    +0.000 OA
ATOM      2  C   UNL     1      12.704  58.804   5.390  0.00  0.00    +0.000 C 
ENDBRANCH   3   2
ENDBRANCH   6   5
ENDBRANCH   7   6
TORSDOF 5
ENDMDL
MODEL 5
REMARK VINA RESULT:      -6.6     16.301     20.752
REMARK  Name = 
REMARK  5 active torsions:
REMARK  status: ('A' for Active; 'I' for Inactive)
REMARK    1  A    between atoms: C_2  and  C_3
REMARK    2  A    between atoms: C_5  and  O_6
REMARK    3  A    between atoms: O_6  and  C_7
REMARK    4  A    between atoms: C_10  and  C_11
REMARK    5  A    between atoms: C_12  and  C_13
REMARK                            x       y       z     vdW  Elec       q    Type
REMARK                         _______ _______ _______ _____ _____    ______ ____
ROOT
ATOM      7  C   UNL     1      10.217  57.305   3.540  0.00  0.00    +0.000 A 
ATOM      8  C   UNL     1      11.384  56.982   2.847  0.00  0.00    +0.000 A 
ATOM      9  C   UNL     1      11.347  56.389   1.626  0.00  0.00    +0.000 A 
ATOM     10  C   UNL     1      10.264  56.712   0.808  0.00  0.00    +0.000 A 
ATOM     21  C   UNL     1       9.092  56.926   1.510  0.00  0.00    +0.000 A 
ATOM     22  C   UNL     1       9.093  56.979   2.907  0.00  0.00    +0.000 A 
ENDROOT
BRANCH  10  11
ATOM     11  C   UNL     1      10.750  57.333  -0.392  0.00  0.00    +0.000 C 
ATOM     12  C   UNL     1      11.466  56.486  -1.142  0.00  0.00    +0.000 C 
BRANCH  12  13
ATOM     13  C   UNL     1      10.381  55.908  -1.961  0.00  0.00    +0.000 A 
ATOM     14  C   UNL     1       9.945  56.734  -2.998  0.00  0.00    +0.000 A 
ATOM     15  C   UNL     1       9.714  56.259  -4.283  0.00  0.00    +0.000 A 
ATOM     16  O   UNL     1       9.784  57.081  -5.416  0.00  0.00    +0.000 OA
ATOM     17  C   UNL     1       9.850  54.888  -4.479  0.00  0.00    +0.000 A 
ATOM     18  C   UNL     1       9.978  54.065  -3.369  0.00  0.00    +0.000 A 
ATOM     19  O   UNL     1      10.236  52.721  -3.609  0.00  0.00    +0.000 OA
ATOM     20  C   UNL     1      10.235  54.553  -2.121  0.00  0.00    +0.000 A 
ENDBRANCH  12  13
ENDBRANCH  10  11
BRANCH   7   6
ATOM      6  O   UNL     1      10.504  57.626   4.828  0.00  0.00    +0.000 OA
BRANCH   6   5
ATOM      3  C   UNL     1      10.468  56.918   7.710  0.00  0.00    +0.000 C 
ATOM      4  O   UNL     1      10.365  56.078   6.492  0.00  0.00    +0.000 OA
ATOM      5  C   UNL     1      11.390  56.559   5.489  0.00  0.00    +0.000 C 
ATOM     23  C   UNL     1      12.338  57.531   6.529  0.00  0.00    +0.000 C 
ATOM     24  O   UNL     1      13.088  58.129   5.359  0.00  0.00    +0.000 OA
ATOM     25  C   UNL     1      11.433  58.930   6.853  0.00  0.00    +0.000 C 
ATOM     26  O   UNL     1      11.333  59.543   5.491  0.00  0.00    +0.000 OA
ATOM     27  C   UNL     1       9.877  58.252   6.821  0.00  0.00    +0.000 C 
ATOM     28  O   UNL     1       9.440  59.002   8.039  0.00  0.00    +0.000 OA
BRANCH   3   2
ATOM      1  O   UNL     1       8.804  56.002   9.171  0.00  0.00    +0.000 OA
ATOM      2  C   UNL     1       8.925  56.610   8.176  0.00  0.00    +0.000 C 
ENDBRANCH   3   2
ENDBRANCH   6   5
ENDBRANCH   7   6
TORSDOF 5
ENDMDL
MODEL 6
REMARK VINA RESULT:      -6.6     29.925     32.501
REMARK  Name = 
REMARK  5 active torsions:
REMARK  status: ('A' for Active; 'I' for Inactive)
REMARK    1  A    between atoms: C_2  and  C_3
REMARK    2  A    between atoms: C_5  and  O_6
REMARK    3  A    between atoms: O_6  and  C_7
REMARK    4  A    between atoms: C_10  and  C_11
REMARK    5  A    between atoms: C_12  and  C_13
REMARK                            x       y       z     vdW  Elec       q    Type
REMARK                         _______ _______ _______ _____ _____    ______ ____
ROOT
ATOM      7  C   UNL     1      25.472  57.765  -4.889  0.00  0.00    +0.000 A 
ATOM      8  C   UNL     1      25.057  58.552  -5.962  0.00  0.00    +0.000 A 
ATOM      9  C   UNL     1      25.807  59.588  -6.421  0.00  0.00    +0.000 A 
ATOM     10  C   UNL     1      27.191  59.453  -6.309  0.00  0.00    +0.000 A 
ATOM     21  C   UNL     1      27.584  58.758  -5.180  0.00  0.00    +0.000 A 
ATOM     22  C   UNL     1      26.642  58.123  -4.365  0.00  0.00    +0.000 A 
ENDROOT
BRANCH  10  11
ATOM     11  C   UNL     1      27.773  59.493  -7.621  0.00  0.00    +0.000 C 
ATOM     12  C   UNL     1      28.965  58.885  -7.660  0.00  0.00    +0.000 C 
BRANCH  12  13
ATOM     13  C   UNL     1      28.527  57.508  -7.970  0.00  0.00    +0.000 A 
ATOM     14  C   UNL     1      28.990  56.545  -7.072  0.00  0.00    +0.000 A 
ATOM     15  C   UNL     1      28.171  55.545  -6.564  0.00  0.00    +0.000 A 
ATOM     16  O   UNL     1      28.421  54.915  -5.337  0.00  0.00    +0.000 OA
ATOM     17  C   UNL     1      26.873  55.484  -7.060  0.00  0.00    +0.000 A 
ATOM     18  C   UNL     1      26.546  56.254  -8.168  0.00  0.00    +0.000 A 
ATOM     19  O   UNL     1      25.211  56.262  -8.557  0.00  0.00    +0.000 OA
ATOM     20  C   UNL     1      27.353  57.252  -8.632  0.00  0.00    +0.000 A 
ENDBRANCH  12  13
ENDBRANCH  10  11
BRANCH   7   6
ATOM      6  O   UNL     1      24.450  56.989  -4.446  0.00  0.00    +0.000 OA
BRANCH   6   5
ATOM      3  C   UNL     1      21.712  57.043  -3.302  0.00  0.00    +0.000 C 
ATOM      4  O   UNL     1      22.436  58.012  -4.159  0.00  0.00    +0.000 OA
ATOM      5  C   UNL     1      23.162  57.246  -5.244  0.00  0.00    +0.000 C 
ATOM     23  C   UNL     1      22.374  55.738  -5.071  0.00  0.00    +0.000 C 
ATOM     24  O   UNL     1      23.378  55.059  -5.976  0.00  0.00    +0.000 OA
ATOM     25  C   UNL     1      22.965  55.035  -3.644  0.00  0.00    +0.000 C 
ATOM     26  O   UNL     1      24.411  54.847  -3.980  0.00  0.00    +0.000 OA
ATOM     27  C   UNL     1      23.210  56.448  -2.735  0.00  0.00    +0.000 C 
ATOM     28  O   UNL     1      22.621  55.848  -1.498  0.00  0.00    +0.000 OA
BRANCH   3   2
ATOM      1  O   UNL     1      20.644  58.544  -1.770  0.00  0.00    +0.000 OA
ATOM      2  C   UNL     1      21.681  58.053  -2.010  0.00  0.00    +0.000 C 
ENDBRANCH   3   2
ENDBRANCH   6   5
ENDBRANCH   7   6
TORSDOF 5
ENDMDL
MODEL 7
REMARK VINA RESULT:      -6.6     10.351     13.458
REMARK  Name = 
REMARK  5 active torsions:
REMARK  status: ('A' for Active; 'I' for Inactive)
REMARK    1  A    between atoms: C_2  and  C_3
REMARK    2  A    between atoms: C_5  and  O_6
REMARK    3  A    between atoms: O_6  and  C_7
REMARK    4  A    between atoms: C_10  and  C_11
REMARK    5  A    between atoms: C_12  and  C_13
REMARK                            x       y       z     vdW  Elec       q    Type
REMARK                         _______ _______ _______ _____ _____    ______ ____
ROOT
ATOM      7  C   UNL     1       3.494  60.131   9.142  0.00  0.00    +0.000 A 
ATOM      8  C   UNL     1       3.759  61.265   9.909  0.00  0.00    +0.000 A 
ATOM      9  C   UNL     1       2.780  62.145  10.244  0.00  0.00    +0.000 A 
ATOM     10  C   UNL     1       1.500  61.618  10.420  0.00  0.00    +0.000 A 
ATOM     21  C   UNL     1       1.223  60.559   9.575  0.00  0.00    +0.000 A 
ATOM     22  C   UNL     1       2.223  60.002   8.772  0.00  0.00    +0.000 A 
ENDROOT
BRANCH  10  11
ATOM     11  C   UNL     1       1.076  61.859  11.770  0.00  0.00    +0.000 C 
ATOM     12  C   UNL     1       0.041  61.085  12.118  0.00  0.00    +0.000 C 
BRANCH  12  13
ATOM     13  C   UNL     1       0.775  59.910  12.630  0.00  0.00    +0.000 A 
ATOM     14  C   UNL     1       1.890  60.226  13.409  0.00  0.00    +0.000 A 
ATOM     15  C   UNL     1       2.170  59.581  14.606  0.00  0.00    +0.000 A 
ATOM     16  O   UNL     1       2.925  60.176  15.626  0.00  0.00    +0.000 OA
ATOM     17  C   UNL     1       1.334  58.528  14.963  0.00  0.00    +0.000 A 
ATOM     18  C   UNL     1       0.433  58.044  14.023  0.00  0.00    +0.000 A 
ATOM     19  O   UNL     1      -0.468  57.079  14.455  0.00  0.00    +0.000 OA
ATOM     20  C   UNL     1       0.152  58.711  12.867  0.00  0.00    +0.000 A 
ENDBRANCH  12  13
ENDBRANCH  10  11
BRANCH   7   6
ATOM      6  O   UNL     1       4.653  59.568   8.713  0.00  0.00    +0.000 OA
BRANCH   6   5
ATOM      3  C   UNL     1       5.938  56.983   8.023  0.00  0.00    +0.000 C 
ATOM      4  O   UNL     1       4.520  57.413   7.989  0.00  0.00    +0.000 OA
ATOM      5  C   UNL     1       4.453  58.804   7.396  0.00  0.00    +0.000 C 
ATOM     23  C   UNL     1       6.030  58.883   6.739  0.00  0.00    +0.000 C 
ATOM     24  O   UNL     1       5.890  60.364   6.466  0.00  0.00    +0.000 OA
ATOM     25  C   UNL     1       7.097  59.074   8.044  0.00  0.00    +0.000 C 
ATOM     26  O   UNL     1       6.675  60.405   8.583  0.00  0.00    +0.000 OA
ATOM     27  C   UNL     1       6.254  58.171   9.209  0.00  0.00    +0.000 C 
ATOM     28  O   UNL     1       7.496  57.499   9.701  0.00  0.00    +0.000 OA
BRANCH   3   2
ATOM      1  O   UNL     1       5.454  54.809   8.908  0.00  0.00    +0.000 OA
ATOM      2  C   UNL     1       5.689  55.909   9.238  0.00  0.00    +0.000 C 
ENDBRANCH   3   2
ENDBRANCH   6   5
ENDBRANCH   7   6
TORSDOF 5
ENDMDL
MODEL 8
REMARK VINA RESULT:      -6.6     40.117     42.196
REMARK  Name = 
REMARK  5 active torsions:
REMARK  status: ('A' for Active; 'I' for Inactive)
REMARK    1  A    between atoms: C_2  and  C_3
REMARK    2  A    between atoms: C_5  and  O_6
REMARK    3  A    between atoms: O_6  and  C_7
REMARK    4  A    between atoms: C_10  and  C_11
REMARK    5  A    between atoms: C_12  and  C_13
REMARK                            x       y       z     vdW  Elec       q    Type
REMARK                         _______ _______ _______ _____ _____    ______ ____
ROOT
ATOM      7  C   UNL     1      35.285  58.868 -12.175  0.00  0.00    +0.000 A 
ATOM      8  C   UNL     1      35.817  58.930 -10.888  0.00  0.00    +0.000 A 
ATOM      9  C   UNL     1      36.416  60.054 -10.416  0.00  0.00    +0.000 A 
ATOM     10  C   UNL     1      35.928  61.270 -10.896  0.00  0.00    +0.000 A 
ATOM     21  C   UNL     1      35.503  61.210 -12.210  0.00  0.00    +0.000 A 
ATOM     22  C   UNL     1      35.426  59.986 -12.883  0.00  0.00    +0.000 A 
ENDROOT
BRANCH  10  11
ATOM     11  C   UNL     1      35.422  62.039  -9.794  0.00  0.00    +0.000 C 
ATOM     12  C   UNL     1      34.188  62.501 -10.029  0.00  0.00    +0.000 C 
BRANCH  12  13
ATOM     13  C   UNL     1      33.398  61.365  -9.512  0.00  0.00    +0.000 A 
ATOM     14  C   UNL     1      33.464  61.206  -8.126  0.00  0.00    +0.000 A 
ATOM     15  C   UNL     1      32.340  60.952  -7.351  0.00  0.00    +0.000 A 
ATOM     16  O   UNL     1      32.268  61.288  -5.993  0.00  0.00    +0.000 OA
ATOM     17  C   UNL     1      31.138  60.769  -8.028  0.00  0.00    +0.000 A 
ATOM     18  C   UNL     1      31.166  60.626  -9.409  0.00  0.00    +0.000 A 
ATOM     19  O   UNL     1      29.939  60.572 -10.060  0.00  0.00    +0.000 OA
ATOM     20  C   UNL     1      32.273  60.911 -10.153  0.00  0.00    +0.000 A 
ENDBRANCH  12  13
ENDBRANCH  10  11
BRANCH   7   6
ATOM      6  O   UNL     1      34.996  57.584 -12.507  0.00  0.00    +0.000 OA
BRANCH   6   5
ATOM      3  C   UNL     1      32.971  55.476 -13.024  0.00  0.00    +0.000 C 
ATOM      4  O   UNL     1      32.871  56.955 -13.034  0.00  0.00    +0.000 OA
ATOM      5  C   UNL     1      34.086  57.514 -13.743  0.00  0.00    +0.000 C 
ATOM     23  C   UNL     1      34.648  56.072 -14.472  0.00  0.00    +0.000 C 
ATOM     24  O   UNL     1      35.953  56.729 -14.867  0.00  0.00    +0.000 OA
ATOM     25  C   UNL     1      35.327  55.129 -13.236  0.00  0.00    +0.000 C 
ATOM     26  O   UNL     1      36.471  55.989 -12.797  0.00  0.00    +0.000 OA
ATOM     27  C   UNL     1      34.304  55.588 -11.961  0.00  0.00    +0.000 C 
ATOM     28  O   UNL     1      34.160  54.184 -11.466  0.00  0.00    +0.000 OA
BRANCH   3   2
ATOM      1  O   UNL     1      30.856  55.478 -11.898  0.00  0.00    +0.000 OA
ATOM      2  C   UNL     1      32.001  55.318 -11.710  0.00  0.00    +0.000 C 
ENDBRANCH   3   2
ENDBRANCH   6   5
ENDBRANCH   7   6
TORSDOF 5
ENDMDL
MODEL 9
REMARK VINA RESULT:      -6.5     30.220     32.680
REMARK  Name = 
REMARK  5 active torsions:
REMARK  status: ('A' for Active; 'I' for Inactive)
REMARK    1  A    between atoms: C_2  and  C_3
REMARK    2  A    between atoms: C_5  and  O_6
REMARK    3  A    between atoms: O_6  and  C_7
REMARK    4  A    between atoms: C_10  and  C_11
REMARK    5  A    between atoms: C_12  and  C_13
REMARK                            x       y       z     vdW  Elec       q    Type
REMARK                         _______ _______ _______ _____ _____    ______ ____
ROOT
ATOM      7  C   UNL     1      25.002  54.852  -5.102  0.00  0.00    +0.000 A 
ATOM      8  C   UNL     1      26.185  54.550  -4.426  0.00  0.00    +0.000 A 
ATOM      9  C   UNL     1      27.070  53.640  -4.909  0.00  0.00    +0.000 A 
ATOM     10  C   UNL     1      27.157  53.529  -6.297  0.00  0.00    +0.000 A 
ATOM     21  C   UNL     1      25.949  53.730  -6.939  0.00  0.00    +0.000 A 
ATOM     22  C   UNL     1      24.827  54.173  -6.233  0.00  0.00    +0.000 A 
ENDROOT
BRANCH  10  11
ATOM     11  C   UNL     1      28.491  53.861  -6.711  0.00  0.00    +0.000 C 
ATOM     12  C   UNL     1      28.500  54.722  -7.735  0.00  0.00    +0.000 C 
BRANCH  12  13
ATOM     13  C   UNL     1      28.489  55.995  -6.986  0.00  0.00    +0.000 A 
ATOM     14  C   UNL     1      29.702  56.308  -6.372  0.00  0.00    +0.000 A 
ATOM     15  C   UNL     1      30.255  57.581  -6.420  0.00  0.00    +0.000 A 
ATOM     16  O   UNL     1      31.631  57.812  -6.287  0.00  0.00    +0.000 OA
ATOM     17  C   UNL     1      29.499  58.572  -7.039  0.00  0.00    +0.000 A 
ATOM     18  C   UNL     1      28.176  58.297  -7.359  0.00  0.00    +0.000 A 
ATOM     19  O   UNL     1      27.492  59.264  -8.086  0.00  0.00    +0.000 OA
ATOM     20  C   UNL     1      27.662  57.034  -7.332  0.00  0.00    +0.000 A 
ENDBRANCH  12  13
ENDBRANCH  10  11
BRANCH   7   6
ATOM      6  O   UNL     1      24.169  55.566  -4.303  0.00  0.00    +0.000 OA
BRANCH   6   5
ATOM      3  C   UNL     1      22.213  57.739  -4.813  0.00  0.00    +0.000 C 
ATOM      4  O   UNL     1      22.595  56.555  -5.618  0.00  0.00    +0.000 OA
ATOM      5  C   UNL     1      22.698  55.359  -4.697  0.00  0.00    +0.000 C 
ATOM     23  C   UNL     1      21.907  56.015  -3.330  0.00  0.00    +0.000 C 
ATOM     24  O   UNL     1      22.345  54.854  -2.464  0.00  0.00    +0.000 OA
ATOM     25  C   UNL     1      22.977  57.131  -2.631  0.00  0.00    +0.000 C 
ATOM     26  O   UNL     1      24.109  56.242  -2.219  0.00  0.00    +0.000 OA
ATOM     27  C   UNL     1      23.737  57.689  -4.043  0.00  0.00    +0.000 C 
ATOM     28  O   UNL     1      23.679  59.117  -3.604  0.00  0.00    +0.000 OA
BRANCH   3   2
ATOM      1  O   UNL     1      22.570  58.621  -7.012  0.00  0.00    +0.000 OA
ATOM      2  C   UNL     1      22.848  58.803  -5.888  0.00  0.00    +0.000 C 
ENDBRANCH   3   2
ENDBRANCH   6   5
ENDBRANCH   7   6
TORSDOF 5
ENDMDL
MODEL 10
REMARK VINA RESULT:      -6.5     33.478     36.840
REMARK  Name = 
REMARK  5 active torsions:
REMARK  status: ('A' for Active; 'I' for Inactive)
REMARK    1  A    between atoms: C_2  and  C_3
REMARK    2  A    between atoms: C_5  and  O_6
REMARK    3  A    between atoms: O_6  and  C_7
REMARK    4  A    between atoms: C_10  and  C_11
REMARK    5  A    between atoms: C_12  and  C_13
REMARK                            x       y       z     vdW  Elec       q    Type
REMARK                         _______ _______ _______ _____ _____    ______ ____
ROOT
ATOM      7  C   UNL     1       6.886  45.912 -13.463  0.00  0.00    +0.000 A 
ATOM      8  C   UNL     1       8.046  46.176 -14.190  0.00  0.00    +0.000 A 
ATOM      9  C   UNL     1       9.155  45.401 -14.072  0.00  0.00    +0.000 A 
ATOM     10  C   UNL     1       8.944  44.049 -13.797  0.00  0.00    +0.000 A 
ATOM     21  C   UNL     1       7.847  43.819 -12.987  0.00  0.00    +0.000 A 
ATOM     22  C   UNL     1       6.970  44.857 -12.657  0.00  0.00    +0.000 A 
ENDROOT
BRANCH  10  11
ATOM     11  C   UNL     1       9.483  43.263 -14.870  0.00  0.00    +0.000 C 
ATOM     12  C   UNL     1       8.562  42.458 -15.414  0.00  0.00    +0.000 C 
BRANCH  12  13
ATOM     13  C   UNL     1       8.018  43.367 -16.443  0.00  0.00    +0.000 A 
ATOM     14  C   UNL     1       8.920  43.685 -17.461  0.00  0.00    +0.000 A 
ATOM     15  C   UNL     1       8.559  43.687 -18.802  0.00  0.00    +0.000 A 
ATOM     16  O   UNL     1       9.487  43.491 -19.833  0.00  0.00    +0.000 OA
ATOM     17  C   UNL     1       7.221  43.443 -19.093  0.00  0.00    +0.000 A 
ATOM     18  C   UNL     1       6.302  43.439 -18.052  0.00  0.00    +0.000 A 
ATOM     19  O   UNL     1       4.999  43.069 -18.364  0.00  0.00    +0.000 OA
ATOM     20  C   UNL     1       6.680  43.408 -16.741  0.00  0.00    +0.000 A 
ENDBRANCH  12  13
ENDBRANCH  10  11
BRANCH   7   6
ATOM      6  O   UNL     1       6.029  46.962 -13.539  0.00  0.00    +0.000 OA
BRANCH   6   5
ATOM      3  C   UNL     1       3.440  47.542 -12.207  0.00  0.00    +0.000 C 
ATOM      4  O   UNL     1       4.665  46.864 -11.718  0.00  0.00    +0.000 OA
ATOM      5  C   UNL     1       5.870  47.657 -12.178  0.00  0.00    +0.000 C 
ATOM     23  C   UNL     1       5.071  49.096 -12.646  0.00  0.00    +0.000 C 
ATOM     24  O   UNL     1       6.321  49.623 -13.316  0.00  0.00    +0.000 OA
ATOM     25  C   UNL     1       4.259  48.757 -14.097  0.00  0.00    +0.000 C 
ATOM     26  O   UNL     1       5.401  48.455 -15.016  0.00  0.00    +0.000 OA
ATOM     27  C   UNL     1       3.870  47.129 -13.809  0.00  0.00    +0.000 C 
ATOM     28  O   UNL     1       2.479  47.287 -14.333  0.00  0.00    +0.000 OA
BRANCH   3   2
ATOM      1  O   UNL     1       2.566  45.583 -11.139  0.00  0.00    +0.000 OA
ATOM      2  C   UNL     1       2.538  46.173 -12.151  0.00  0.00    +0.000 C 
ENDBRANCH   3   2
ENDBRANCH   6   5
ENDBRANCH   7   6
TORSDOF 5
ENDMDL
