MODEL 1
REMARK VINA RESULT:      -6.2      0.000      0.000
REMARK  Name = 
REMARK  4 active torsions:
REMARK  status: ('A' for Active; 'I' for Inactive)
REMARK    1  A    between atoms: S_2  and  O_5
REMARK    2  A    between atoms: O_5  and  C_6
REMARK    3  A    between atoms: C_11  and  C_12
REMARK    4  A    between atoms: C_13  and  C_14
REMARK                            x       y       z     vdW  Elec       q    Type
REMARK                         _______ _______ _______ _____ _____    ______ ____
ROOT
ATOM      6  C   UNL     1       9.950  56.133 -13.401  0.00  0.00    +0.000 A 
ATOM      7  C   UNL     1       9.091  55.711 -14.407  0.00  0.00    +0.000 A 
ATOM      8  C   UNL     1       9.291  56.072 -15.733  0.00  0.00    +0.000 A 
ATOM      9  O   UNL     1       8.393  55.605 -16.691  0.00  0.00    +0.000 OA
ATOM     10  C   UNL     1      10.261  57.017 -16.035  0.00  0.00    +0.000 A 
ATOM     11  C   UNL     1      11.269  57.171 -15.093  0.00  0.00    +0.000 A 
ATOM     21  C   UNL     1      10.893  57.081 -13.775  0.00  0.00    +0.000 A 
ENDROOT
BRANCH  11  12
ATOM     12  C   UNL     1      12.599  57.593 -15.523  0.00  0.00    +0.000 C 
ATOM     13  C   UNL     1      12.819  58.354 -16.577  0.00  0.00    +0.000 C 
BRANCH  13  14
ATOM     14  C   UNL     1      14.029  58.143 -17.358  0.00  0.00    +0.000 A 
ATOM     15  C   UNL     1      13.986  58.342 -18.721  0.00  0.00    +0.000 A 
ATOM     16  C   UNL     1      15.163  58.201 -19.442  0.00  0.00    +0.000 A 
ATOM     17  C   UNL     1      16.076  57.263 -19.044  0.00  0.00    +0.000 A 
ATOM     18  O   UNL     1      17.257  57.124 -19.781  0.00  0.00    +0.000 OA
ATOM     19  C   UNL     1      16.011  56.844 -17.721  0.00  0.00    +0.000 A 
ATOM     20  C   UNL     1      15.122  57.448 -16.858  0.00  0.00    +0.000 A 
ENDBRANCH  13  14
ENDBRANCH  11  12
BRANCH   6   5
ATOM      5  O   UNL     1      10.021  55.448 -12.187  0.00  0.00    +0.000 OA
BRANCH   5   2
ATOM      1  O   UNL     1      10.173  57.449 -10.449  0.00  0.00    +0.000 OA
ATOM      2  S   UNL     1       9.358  56.262 -10.834  0.00  0.00    +0.000 S 
ATOM      3  O   UNL     1       9.306  55.285  -9.707  0.00  0.00    +0.000 OA
ATOM      4  O   UNL     1       7.813  56.733 -11.267  0.00  0.00    +0.000 OA
ENDBRANCH   5   2
ENDBRANCH   6   5
TORSDOF 4
ENDMDL
MODEL 2
REMARK VINA RESULT:      -6.1     18.298     20.638
REMARK  Name = 
REMARK  4 active torsions:
REMARK  status: ('A' for Active; 'I' for Inactive)
REMARK    1  A    between atoms: S_2  and  O_5
REMARK    2  A    between atoms: O_5  and  C_6
REMARK    3  A    between atoms: C_11  and  C_12
REMARK    4  A    between atoms: C_13  and  C_14
REMARK                            x       y       z     vdW  Elec       q    Type
REMARK                         _______ _______ _______ _____ _____    ______ ____
ROOT
ATOM      6  C   UNL     1      28.547  58.990  -7.640  0.00  0.00    +0.000 A 
ATOM      7  C   UNL     1      28.526  59.400  -6.314  0.00  0.00    +0.000 A 
ATOM      8  C   UNL     1      29.522  60.213  -5.789  0.00  0.00    +0.000 A 
ATOM      9  O   UNL     1      29.432  60.593  -4.450  0.00  0.00    +0.000 OA
ATOM     10  C   UNL     1      30.651  60.475  -6.553  0.00  0.00    +0.000 A 
ATOM     11  C   UNL     1      30.501  60.324  -7.924  0.00  0.00    +0.000 A 
ATOM     21  C   UNL     1      29.709  59.283  -8.341  0.00  0.00    +0.000 A 
ENDROOT
BRANCH  11  12
ATOM     12  C   UNL     1      31.313  61.132  -8.830  0.00  0.00    +0.000 C 
ATOM     13  C   UNL     1      31.697  60.727 -10.025  0.00  0.00    +0.000 C 
BRANCH  13  14
ATOM     14  C   UNL     1      32.992  61.156 -10.531  0.00  0.00    +0.000 A 
ATOM     15  C   UNL     1      33.652  60.354 -11.438  0.00  0.00    +0.000 A 
ATOM     16  C   UNL     1      34.855  60.808 -11.961  0.00  0.00    +0.000 A 
ATOM     17  C   UNL     1      35.684  61.552 -11.167  0.00  0.00    +0.000 A 
ATOM     18  O   UNL     1      36.897  61.999 -11.700  0.00  0.00    +0.000 OA
ATOM     19  C   UNL     1      35.104  62.199 -10.082  0.00  0.00    +0.000 A 
ATOM     20  C   UNL     1      33.736  62.151  -9.913  0.00  0.00    +0.000 A 
ENDBRANCH  13  14
ENDBRANCH  11  12
BRANCH   6   5
ATOM      5  O   UNL     1      27.380  58.562  -8.275  0.00  0.00    +0.000 OA
BRANCH   5   2
ATOM      1  O   UNL     1      28.163  56.967 -10.247  0.00  0.00    +0.000 OA
ATOM      2  S   UNL     1      27.433  56.989  -8.947  0.00  0.00    +0.000 S 
ATOM      3  O   UNL     1      26.023  56.538  -9.140  0.00  0.00    +0.000 OA
ATOM      4  O   UNL     1      28.207  56.014  -7.830  0.00  0.00    +0.000 OA
ENDBRANCH   5   2
ENDBRANCH   6   5
TORSDOF 4
ENDMDL
MODEL 3
REMARK VINA RESULT:      -6.1     15.136     16.805
REMARK  Name = 
REMARK  4 active torsions:
REMARK  status: ('A' for Active; 'I' for Inactive)
REMARK    1  A    between atoms: S_2  and  O_5
REMARK    2  A    between atoms: O_5  and  C_6
REMARK    3  A    between atoms: C_11  and  C_12
REMARK    4  A    between atoms: C_13  and  C_14
REMARK                            x       y       z     vdW  Elec       q    Type
REMARK                         _______ _______ _______ _____ _____    ______ ____
ROOT
ATOM      6  C   UNL     1       7.446  50.600   0.210  0.00  0.00    +0.000 A 
ATOM      7  C   UNL     1       6.805  50.658  -1.020  0.00  0.00    +0.000 A 
ATOM      8  C   UNL     1       6.511  51.870  -1.631  0.00  0.00    +0.000 A 
ATOM      9  O   UNL     1       5.873  51.851  -2.871  0.00  0.00    +0.000 OA
ATOM     10  C   UNL     1       6.700  53.046  -0.920  0.00  0.00    +0.000 A 
ATOM     11  C   UNL     1       7.600  52.978   0.134  0.00  0.00    +0.000 A 
ATOM     21  C   UNL     1       7.597  51.815   0.865  0.00  0.00    +0.000 A 
ENDROOT
BRANCH  11  12
ATOM     12  C   UNL     1       8.349  54.170   0.521  0.00  0.00    +0.000 C 
ATOM     13  C   UNL     1       8.801  55.060  -0.340  0.00  0.00    +0.000 C 
BRANCH  13  14
ATOM     14  C   UNL     1      10.059  55.736  -0.058  0.00  0.00    +0.000 A 
ATOM     15  C   UNL     1      11.110  55.580  -0.937  0.00  0.00    +0.000 A 
ATOM     16  C   UNL     1      12.281  56.283  -0.690  0.00  0.00    +0.000 A 
ATOM     17  C   UNL     1      12.664  56.499   0.607  0.00  0.00    +0.000 A 
ATOM     18  O   UNL     1      13.848  57.203   0.846  0.00  0.00    +0.000 OA
ATOM     19  C   UNL     1      11.670  56.430   1.576  0.00  0.00    +0.000 A 
ATOM     20  C   UNL     1      10.357  56.256   1.193  0.00  0.00    +0.000 A 
ENDBRANCH  13  14
ENDBRANCH  11  12
BRANCH   6   5
ATOM      5  O   UNL     1       8.119  49.446   0.613  0.00  0.00    +0.000 OA
BRANCH   5   2
ATOM      1  O   UNL     1       7.469  48.928   3.134  0.00  0.00    +0.000 OA
ATOM      2  S   UNL     1       7.287  48.453   1.732  0.00  0.00    +0.000 S 
ATOM      3  O   UNL     1       7.821  47.068   1.583  0.00  0.00    +0.000 OA
ATOM      4  O   UNL     1       5.670  48.500   1.308  0.00  0.00    +0.000 OA
ENDBRANCH   5   2
ENDBRANCH   6   5
TORSDOF 4
ENDMDL
MODEL 4
REMARK VINA RESULT:      -6.1     14.125     16.153
REMARK  Name = 
REMARK  4 active torsions:
REMARK  status: ('A' for Active; 'I' for Inactive)
REMARK    1  A    between atoms: S_2  and  O_5
REMARK    2  A    between atoms: O_5  and  C_6
REMARK    3  A    between atoms: C_11  and  C_12
REMARK    4  A    between atoms: C_13  and  C_14
REMARK                            x       y       z     vdW  Elec       q    Type
REMARK                         _______ _______ _______ _____ _____    ______ ____
ROOT
ATOM      6  C   UNL     1      27.006  51.455 -14.519  0.00  0.00    +0.000 A 
ATOM      7  C   UNL     1      25.701  51.568 -14.061  0.00  0.00    +0.000 A 
ATOM      8  C   UNL     1      24.673  51.996 -14.891  0.00  0.00    +0.000 A 
ATOM      9  O   UNL     1      23.385  52.078 -14.365  0.00  0.00    +0.000 OA
ATOM     10  C   UNL     1      24.985  52.489 -16.150  0.00  0.00    +0.000 A 
ATOM     11  C   UNL     1      26.204  52.082 -16.674  0.00  0.00    +0.000 A 
ATOM     21  C   UNL     1      27.245  51.973 -15.785  0.00  0.00    +0.000 A 
ENDROOT
BRANCH  11  12
ATOM     12  C   UNL     1      26.366  51.974 -18.122  0.00  0.00    +0.000 C 
ATOM     13  C   UNL     1      27.270  52.643 -18.807  0.00  0.00    +0.000 C 
BRANCH  13  14
ATOM     14  C   UNL     1      26.950  53.079 -20.159  0.00  0.00    +0.000 A 
ATOM     15  C   UNL     1      27.786  53.978 -20.785  0.00  0.00    +0.000 A 
ATOM     16  C   UNL     1      27.503  54.333 -22.097  0.00  0.00    +0.000 A 
ATOM     17  C   UNL     1      26.196  54.417 -22.493  0.00  0.00    +0.000 A 
ATOM     18  O   UNL     1      25.920  54.781 -23.815  0.00  0.00    +0.000 OA
ATOM     19  C   UNL     1      25.264  53.711 -21.742  0.00  0.00    +0.000 A 
ATOM     20  C   UNL     1      25.693  52.894 -20.718  0.00  0.00    +0.000 A 
ENDBRANCH  13  14
ENDBRANCH  11  12
BRANCH   6   5
ATOM      5  O   UNL     1      27.928  50.640 -13.860  0.00  0.00    +0.000 OA
BRANCH   5   2
ATOM      1  O   UNL     1      26.931  48.255 -13.258  0.00  0.00    +0.000 OA
ATOM      2  S   UNL     1      27.827  48.968 -14.212  0.00  0.00    +0.000 S 
ATOM      3  O   UNL     1      29.210  48.411 -14.135  0.00  0.00    +0.000 OA
ATOM      4  O   UNL     1      27.236  48.839 -15.772  0.00  0.00    +0.000 OA
ENDBRANCH   5   2
ENDBRANCH   6   5
TORSDOF 4
ENDMDL
MODEL 5
REMARK VINA RESULT:      -6.0     14.186     16.444
REMARK  Name = 
REMARK  4 active torsions:
REMARK  status: ('A' for Active; 'I' for Inactive)
REMARK    1  A    between atoms: S_2  and  O_5
REMARK    2  A    between atoms: O_5  and  C_6
REMARK    3  A    between atoms: C_11  and  C_12
REMARK    4  A    between atoms: C_13  and  C_14
REMARK                            x       y       z     vdW  Elec       q    Type
REMARK                         _______ _______ _______ _____ _____    ______ ____
ROOT
ATOM      6  C   UNL     1      26.932  51.200 -14.528  0.00  0.00    +0.000 A 
ATOM      7  C   UNL     1      25.653  51.486 -14.070  0.00  0.00    +0.000 A 
ATOM      8  C   UNL     1      24.750  52.209 -14.839  0.00  0.00    +0.000 A 
ATOM      9  O   UNL     1      23.480  52.452 -14.318  0.00  0.00    +0.000 OA
ATOM     10  C   UNL     1      25.191  52.809 -16.010  0.00  0.00    +0.000 A 
ATOM     11  C   UNL     1      26.334  52.262 -16.576  0.00  0.00    +0.000 A 
ATOM     21  C   UNL     1      27.306  51.838 -15.703  0.00  0.00    +0.000 A 
ENDROOT
BRANCH  11  12
ATOM     12  C   UNL     1      26.526  52.332 -18.022  0.00  0.00    +0.000 C 
ATOM     13  C   UNL     1      27.648  52.723 -18.592  0.00  0.00    +0.000 C 
BRANCH  13  14
ATOM     14  C   UNL     1      27.582  53.453 -19.850  0.00  0.00    +0.000 A 
ATOM     15  C   UNL     1      26.657  53.067 -20.796  0.00  0.00    +0.000 A 
ATOM     16  C   UNL     1      26.561  53.814 -21.962  0.00  0.00    +0.000 A 
ATOM     17  C   UNL     1      27.695  54.374 -22.485  0.00  0.00    +0.000 A 
ATOM     18  O   UNL     1      27.590  55.119 -23.664  0.00  0.00    +0.000 OA
ATOM     19  C   UNL     1      28.760  54.568 -21.615  0.00  0.00    +0.000 A 
ATOM     20  C   UNL     1      28.602  54.293 -20.273  0.00  0.00    +0.000 A 
ENDBRANCH  13  14
ENDBRANCH  11  12
BRANCH   6   5
ATOM      5  O   UNL     1      27.667  50.145 -13.985  0.00  0.00    +0.000 OA
BRANCH   5   2
ATOM      1  O   UNL     1      29.777  49.516 -12.503  0.00  0.00    +0.000 OA
ATOM      2  S   UNL     1      28.731  50.558 -12.710  0.00  0.00    +0.000 S 
ATOM      3  O   UNL     1      27.909  50.716 -11.475  0.00  0.00    +0.000 OA
ATOM      4  O   UNL     1      29.438  52.016 -13.127  0.00  0.00    +0.000 OA
ENDBRANCH   5   2
ENDBRANCH   6   5
TORSDOF 4
ENDMDL
MODEL 6
REMARK VINA RESULT:      -6.0     30.120     32.171
REMARK  Name = 
REMARK  4 active torsions:
REMARK  status: ('A' for Active; 'I' for Inactive)
REMARK    1  A    between atoms: S_2  and  O_5
REMARK    2  A    between atoms: O_5  and  C_6
REMARK    3  A    between atoms: C_11  and  C_12
REMARK    4  A    between atoms: C_13  and  C_14
REMARK                            x       y       z     vdW  Elec       q    Type
REMARK                         _______ _______ _______ _____ _____    ______ ____
ROOT
ATOM      6  C   UNL     1      17.684  66.833  12.941  0.00  0.00    +0.000 A 
ATOM      7  C   UNL     1      16.892  66.995  11.813  0.00  0.00    +0.000 A 
ATOM      8  C   UNL     1      16.875  68.187  11.101  0.00  0.00    +0.000 A 
ATOM      9  O   UNL     1      16.061  68.276   9.973  0.00  0.00    +0.000 OA
ATOM     10  C   UNL     1      17.525  69.295  11.627  0.00  0.00    +0.000 A 
ATOM     11  C   UNL     1      18.528  69.027  12.549  0.00  0.00    +0.000 A 
ATOM     21  C   UNL     1      18.300  67.984  13.413  0.00  0.00    +0.000 A 
ENDROOT
BRANCH  11  12
ATOM     12  C   UNL     1      19.653  69.949  12.677  0.00  0.00    +0.000 C 
ATOM     13  C   UNL     1      20.860  69.580  13.057  0.00  0.00    +0.000 C 
BRANCH  13  14
ATOM     14  C   UNL     1      21.664  70.504  13.844  0.00  0.00    +0.000 A 
ATOM     15  C   UNL     1      21.030  71.506  14.546  0.00  0.00    +0.000 A 
ATOM     16  C   UNL     1      21.803  72.338  15.344  0.00  0.00    +0.000 A 
ATOM     17  C   UNL     1      23.071  72.656  14.938  0.00  0.00    +0.000 A 
ATOM     18  O   UNL     1      23.840  73.500  15.745  0.00  0.00    +0.000 OA
ATOM     19  C   UNL     1      23.676  71.793  14.032  0.00  0.00    +0.000 A 
ATOM     20  C   UNL     1      23.035  70.628  13.669  0.00  0.00    +0.000 A 
ENDBRANCH  13  14
ENDBRANCH  11  12
BRANCH   6   5
ATOM      5  O   UNL     1      18.039  65.560  13.390  0.00  0.00    +0.000 OA
BRANCH   5   2
ATOM      1  O   UNL     1      19.998  65.531  11.598  0.00  0.00    +0.000 OA
ATOM      2  S   UNL     1      19.601  65.022  12.941  0.00  0.00    +0.000 S 
ATOM      3  O   UNL     1      19.576  63.529  12.940  0.00  0.00    +0.000 OA
ATOM      4  O   UNL     1      20.657  65.583  14.111  0.00  0.00    +0.000 OA
ENDBRANCH   5   2
ENDBRANCH   6   5
TORSDOF 4
ENDMDL
MODEL 7
REMARK VINA RESULT:      -5.9     22.928     24.729
REMARK  Name = 
REMARK  4 active torsions:
REMARK  status: ('A' for Active; 'I' for Inactive)
REMARK    1  A    between atoms: S_2  and  O_5
REMARK    2  A    between atoms: O_5  and  C_6
REMARK    3  A    between atoms: C_11  and  C_12
REMARK    4  A    between atoms: C_13  and  C_14
REMARK                            x       y       z     vdW  Elec       q    Type
REMARK                         _______ _______ _______ _____ _____    ______ ____
ROOT
ATOM      6  C   UNL     1      25.861  49.442   3.640  0.00  0.00    +0.000 A 
ATOM      7  C   UNL     1      26.939  49.440   4.515  0.00  0.00    +0.000 A 
ATOM      8  C   UNL     1      27.231  50.539   5.311  0.00  0.00    +0.000 A 
ATOM      9  O   UNL     1      28.325  50.463   6.173  0.00  0.00    +0.000 OA
ATOM     10  C   UNL     1      26.542  51.726   5.102  0.00  0.00    +0.000 A 
ATOM     11  C   UNL     1      25.311  51.607   4.472  0.00  0.00    +0.000 A 
ATOM     21  C   UNL     1      25.222  50.664   3.477  0.00  0.00    +0.000 A 
ENDROOT
BRANCH  11  12
ATOM     12  C   UNL     1      24.260  52.581   4.755  0.00  0.00    +0.000 C 
ATOM     13  C   UNL     1      23.884  53.516   3.906  0.00  0.00    +0.000 C 
BRANCH  13  14
ATOM     14  C   UNL     1      23.451  54.806   4.426  0.00  0.00    +0.000 A 
ATOM     15  C   UNL     1      22.826  55.691   3.575  0.00  0.00    +0.000 A 
ATOM     16  C   UNL     1      22.360  56.889   4.101  0.00  0.00    +0.000 A 
ATOM     17  C   UNL     1      23.064  57.487   5.111  0.00  0.00    +0.000 A 
ATOM     18  O   UNL     1      22.591  58.696   5.630  0.00  0.00    +0.000 OA
ATOM     19  C   UNL     1      23.905  56.673   5.860  0.00  0.00    +0.000 A 
ATOM     20  C   UNL     1      23.919  55.313   5.630  0.00  0.00    +0.000 A 
ENDBRANCH  13  14
ENDBRANCH  11  12
BRANCH   6   5
ATOM      5  O   UNL     1      25.310  48.245   3.180  0.00  0.00    +0.000 OA
BRANCH   5   2
ATOM      1  O   UNL     1      25.236  46.449   1.227  0.00  0.00    +0.000 OA
ATOM      2  S   UNL     1      25.669  47.836   1.557  0.00  0.00    +0.000 S 
ATOM      3  O   UNL     1      27.145  47.972   1.378  0.00  0.00    +0.000 OA
ATOM      4  O   UNL     1      24.864  48.941   0.593  0.00  0.00    +0.000 OA
ENDBRANCH   5   2
ENDBRANCH   6   5
TORSDOF 4
ENDMDL
MODEL 8
REMARK VINA RESULT:      -5.9     30.167     32.307
REMARK  Name = 
REMARK  4 active torsions:
REMARK  status: ('A' for Active; 'I' for Inactive)
REMARK    1  A    between atoms: S_2  and  O_5
REMARK    2  A    between atoms: O_5  and  C_6
REMARK    3  A    between atoms: C_11  and  C_12
REMARK    4  A    between atoms: C_13  and  C_14
REMARK                            x       y       z     vdW  Elec       q    Type
REMARK                         _______ _______ _______ _____ _____    ______ ____
ROOT
ATOM      6  C   UNL     1      26.400  80.782 -30.136  0.00  0.00    +0.000 A 
ATOM      7  C   UNL     1      26.383  81.731 -31.149  0.00  0.00    +0.000 A 
ATOM      8  C   UNL     1      26.055  83.057 -30.899  0.00  0.00    +0.000 A 
ATOM      9  O   UNL     1      26.067  83.957 -31.963  0.00  0.00    +0.000 OA
ATOM     10  C   UNL     1      25.562  83.404 -29.649  0.00  0.00    +0.000 A 
ATOM     11  C   UNL     1      25.879  82.539 -28.611  0.00  0.00    +0.000 A 
ATOM     21  C   UNL     1      25.888  81.199 -28.915  0.00  0.00    +0.000 A 
ENDROOT
BRANCH  11  12
ATOM     12  C   UNL     1      26.000  83.057 -27.252  0.00  0.00    +0.000 C 
ATOM     13  C   UNL     1      27.046  82.843 -26.478  0.00  0.00    +0.000 C 
BRANCH  13  14
ATOM     14  C   UNL     1      26.844  82.708 -25.043  0.00  0.00    +0.000 A 
ATOM     15  C   UNL     1      25.607  82.313 -24.578  0.00  0.00    +0.000 A 
ATOM     16  C   UNL     1      25.449  82.125 -23.212  0.00  0.00    +0.000 A 
ATOM     17  C   UNL     1      26.140  82.931 -22.348  0.00  0.00    +0.000 A 
ATOM     18  O   UNL     1      25.969  82.739 -20.973  0.00  0.00    +0.000 OA
ATOM     19  C   UNL     1      27.280  83.553 -22.842  0.00  0.00    +0.000 A 
ATOM     20  C   UNL     1      27.717  83.260 -24.117  0.00  0.00    +0.000 A 
ENDBRANCH  13  14
ENDBRANCH  11  12
BRANCH   6   5
ATOM      5  O   UNL     1      27.125  79.599 -30.276  0.00  0.00    +0.000 OA
BRANCH   5   2
ATOM      1  O   UNL     1      29.347  80.932 -29.700  0.00  0.00    +0.000 OA
ATOM      2  S   UNL     1      28.691  79.599 -29.582  0.00  0.00    +0.000 S 
ATOM      3  O   UNL     1      29.495  78.563 -30.294  0.00  0.00    +0.000 OA
ATOM      4  O   UNL     1      28.503  79.183 -27.973  0.00  0.00    +0.000 OA
ENDBRANCH   5   2
ENDBRANCH   6   5
TORSDOF 4
ENDMDL
MODEL 9
REMARK VINA RESULT:      -5.9     24.104     27.981
REMARK  Name = 
REMARK  4 active torsions:
REMARK  status: ('A' for Active; 'I' for Inactive)
REMARK    1  A    between atoms: S_2  and  O_5
REMARK    2  A    between atoms: O_5  and  C_6
REMARK    3  A    between atoms: C_11  and  C_12
REMARK    4  A    between atoms: C_13  and  C_14
REMARK                            x       y       z     vdW  Elec       q    Type
REMARK                         _______ _______ _______ _____ _____    ______ ____
ROOT
ATOM      6  C   UNL     1       5.371  60.075   8.514  0.00  0.00    +0.000 A 
ATOM      7  C   UNL     1       5.341  60.885   7.387  0.00  0.00    +0.000 A 
ATOM      8  C   UNL     1       4.169  61.499   6.964  0.00  0.00    +0.000 A 
ATOM      9  O   UNL     1       4.214  62.306   5.828  0.00  0.00    +0.000 OA
ATOM     10  C   UNL     1       2.970  61.154   7.573  0.00  0.00    +0.000 A 
ATOM     11  C   UNL     1       3.073  60.612   8.846  0.00  0.00    +0.000 A 
ATOM     21  C   UNL     1       4.135  59.770   9.068  0.00  0.00    +0.000 A 
ENDROOT
BRANCH  11  12
ATOM     12  C   UNL     1       1.984  60.803   9.801  0.00  0.00    +0.000 C 
ATOM     13  C   UNL     1       2.171  61.024  11.087  0.00  0.00    +0.000 C 
BRANCH  13  14
ATOM     14  C   UNL     1       1.207  60.493  12.039  0.00  0.00    +0.000 A 
ATOM     15  C   UNL     1       1.336  59.187  12.460  0.00  0.00    +0.000 A 
ATOM     16  C   UNL     1       0.449  58.715  13.418  0.00  0.00    +0.000 A 
ATOM     17  C   UNL     1      -0.840  59.175  13.411  0.00  0.00    +0.000 A 
ATOM     18  O   UNL     1      -1.729  58.690  14.375  0.00  0.00    +0.000 OA
ATOM     19  C   UNL     1      -1.071  60.392  12.781  0.00  0.00    +0.000 A 
ATOM     20  C   UNL     1      -0.006  61.119  12.293  0.00  0.00    +0.000 A 
ENDBRANCH  13  14
ENDBRANCH  11  12
BRANCH   6   5
ATOM      5  O   UNL     1       6.570  59.822   9.181  0.00  0.00    +0.000 OA
BRANCH   5   2
ATOM      1  O   UNL     1       6.471  57.391   8.120  0.00  0.00    +0.000 OA
ATOM      2  S   UNL     1       7.058  58.182   9.239  0.00  0.00    +0.000 S 
ATOM      3  O   UNL     1       6.611  57.629  10.551  0.00  0.00    +0.000 OA
ATOM      4  O   UNL     1       8.728  58.173   9.144  0.00  0.00    +0.000 OA
ENDBRANCH   5   2
ENDBRANCH   6   5
TORSDOF 4
ENDMDL
MODEL 10
REMARK VINA RESULT:      -5.7     16.263     17.929
REMARK  Name = 
REMARK  4 active torsions:
REMARK  status: ('A' for Active; 'I' for Inactive)
REMARK    1  A    between atoms: S_2  and  O_5
REMARK    2  A    between atoms: O_5  and  C_6
REMARK    3  A    between atoms: C_11  and  C_12
REMARK    4  A    between atoms: C_13  and  C_14
REMARK                            x       y       z     vdW  Elec       q    Type
REMARK                         _______ _______ _______ _____ _____    ______ ____
ROOT
ATOM      6  C   UNL     1      25.379  55.133  -5.824  0.00  0.00    +0.000 A 
ATOM      7  C   UNL     1      26.169  54.167  -6.432  0.00  0.00    +0.000 A 
ATOM      8  C   UNL     1      27.213  54.510  -7.281  0.00  0.00    +0.000 A 
ATOM      9  O   UNL     1      27.970  53.486  -7.850  0.00  0.00    +0.000 OA
ATOM     10  C   UNL     1      27.357  55.834  -7.671  0.00  0.00    +0.000 A 
ATOM     11  C   UNL     1      26.779  56.777  -6.833  0.00  0.00    +0.000 A 
ATOM     21  C   UNL     1      25.576  56.434  -6.266  0.00  0.00    +0.000 A 
ENDROOT
BRANCH  11  12
ATOM     12  C   UNL     1      27.359  58.114  -6.744  0.00  0.00    +0.000 C 
ATOM     13  C   UNL     1      27.821  58.780  -7.783  0.00  0.00    +0.000 C 
BRANCH  13  14
ATOM     14  C   UNL     1      28.967  59.660  -7.603  0.00  0.00    +0.000 A 
ATOM     15  C   UNL     1      29.894  59.763  -8.617  0.00  0.00    +0.000 A 
ATOM     16  C   UNL     1      30.946  60.655  -8.457  0.00  0.00    +0.000 A 
ATOM     17  C   UNL     1      31.463  60.851  -7.205  0.00  0.00    +0.000 A 
ATOM     18  O   UNL     1      32.527  61.747  -7.055  0.00  0.00    +0.000 OA
ATOM     19  C   UNL     1      30.645  60.533  -6.129  0.00  0.00    +0.000 A 
ATOM     20  C   UNL     1      29.342  60.141  -6.356  0.00  0.00    +0.000 A 
ENDBRANCH  13  14
ENDBRANCH  11  12
BRANCH   6   5
ATOM      5  O   UNL     1      24.647  54.838  -4.673  0.00  0.00    +0.000 OA
BRANCH   5   2
ATOM      1  O   UNL     1      22.517  54.326  -6.173  0.00  0.00    +0.000 OA
ATOM      2  S   UNL     1      22.944  54.861  -4.849  0.00  0.00    +0.000 S 
ATOM      3  O   UNL     1      22.498  56.277  -4.696  0.00  0.00    +0.000 OA
ATOM      4  O   UNL     1      22.321  53.919  -3.614  0.00  0.00    +0.000 OA
ENDBRANCH   5   2
ENDBRANCH   6   5
TORSDOF 4
ENDMDL
