MODEL 1
REMARK VINA RESULT:      -7.4      0.000      0.000
REMARK  Name = 
REMARK  8 active torsions:
REMARK  status: ('A' for Active; 'I' for Inactive)
REMARK    1  A    between atoms: C_2  and  O_3
REMARK    2  A    between atoms: C_2  and  C_31
REMARK    3  A    between atoms: O_3  and  C_4
REMARK    4  A    between atoms: C_4  and  C_5
REMARK    5  A    between atoms: C_7  and  O_8
REMARK    6  A    between atoms: O_8  and  C_9
REMARK    7  A    between atoms: C_12  and  C_13
REMARK    8  A    between atoms: C_14  and  C_15
REMARK                            x       y       z     vdW  Elec       q    Type
REMARK                         _______ _______ _______ _____ _____    ______ ____
ROOT
ATOM      5  C   UNL     1       6.124  52.855  25.132  0.00  0.00    +0.000 C 
ATOM      6  O   UNL     1       5.880  53.612  23.863  0.00  0.00    +0.000 OA
ATOM      7  C   UNL     1       6.644  54.909  23.969  0.00  0.00    +0.000 C 
ATOM     25  C   UNL     1       5.797  55.567  25.337  0.00  0.00    +0.000 C 
ATOM     26  O   UNL     1       5.314  56.822  24.670  0.00  0.00    +0.000 OA
ATOM     27  C   UNL     1       4.270  54.828  25.209  0.00  0.00    +0.000 C 
ATOM     28  O   UNL     1       4.235  54.341  23.794  0.00  0.00    +0.000 OA
ATOM     29  C   UNL     1       4.704  53.354  25.987  0.00  0.00    +0.000 C 
ATOM     30  O   UNL     1       5.407  54.030  27.139  0.00  0.00    +0.000 OA
ENDROOT
BRANCH   5   4
ATOM      4  C   UNL     1       7.220  53.881  25.800  0.00  0.00    +0.000 C 
BRANCH   4   3
ATOM      3  O   UNL     1       8.408  53.165  25.992  0.00  0.00    +0.000 OA
BRANCH   3   2
ATOM      1  O   UNL     1       9.250  54.207  26.611  0.00  0.00    +0.000 OA
ATOM      2  C   UNL     1       9.392  54.020  26.214  0.00  0.00    +0.000 C 
BRANCH   2  31
ATOM     31  C   UNL     1      10.199  54.973  25.691  0.00  0.00    +0.000 A 
ATOM     32  C   UNL     1      11.160  55.616  26.462  0.00  0.00    +0.000 A 
ATOM     33  C   UNL     1      12.258  56.145  25.791  0.00  0.00    +0.000 A 
ATOM     34  O   UNL     1      13.374  56.531  26.506  0.00  0.00    +0.000 OA
ATOM     35  C   UNL     1      12.233  56.298  24.408  0.00  0.00    +0.000 A 
ATOM     36  O   UNL     1      13.437  56.267  23.699  0.00  0.00    +0.000 OA
ATOM     37  C   UNL     1      11.046  56.014  23.738  0.00  0.00    +0.000 A 
ATOM     38  O   UNL     1      10.948  56.200  22.357  0.00  0.00    +0.000 OA
ATOM     39  C   UNL     1       9.946  55.653  24.508  0.00  0.00    +0.000 A 
ENDBRANCH   2  31
ENDBRANCH   3   2
ENDBRANCH   4   3
ENDBRANCH   5   4
BRANCH   7   8
ATOM      8  O   UNL     1       5.765  55.614  22.901  0.00  0.00    +0.000 OA
BRANCH   8   9
ATOM      9  C   UNL     1       6.417  55.839  21.678  0.00  0.00    +0.000 A 
ATOM     10  C   UNL     1       5.628  56.239  20.592  0.00  0.00    +0.000 A 
ATOM     11  C   UNL     1       5.292  55.320  19.590  0.00  0.00    +0.000 A 
ATOM     12  C   UNL     1       5.871  54.053  19.533  0.00  0.00    +0.000 A 
ATOM     23  C   UNL     1       7.121  54.070  20.164  0.00  0.00    +0.000 A 
ATOM     24  C   UNL     1       7.395  54.957  21.209  0.00  0.00    +0.000 A 
BRANCH  12  13
ATOM     13  C   UNL     1       5.126  52.797  19.736  0.00  0.00    +0.000 C 
ATOM     14  C   UNL     1       4.052  52.722  18.945  0.00  0.00    +0.000 C 
BRANCH  14  15
ATOM     15  C   UNL     1       4.527  52.302  17.653  0.00  0.00    +0.000 A 
ATOM     16  C   UNL     1       5.475  51.403  17.326  0.00  0.00    +0.000 A 
ATOM     17  C   UNL     1       5.474  50.776  16.085  0.00  0.00    +0.000 A 
ATOM     18  O   UNL     1       6.166  49.584  15.978  0.00  0.00    +0.000 OA
ATOM     19  C   UNL     1       4.571  51.228  15.143  0.00  0.00    +0.000 A 
ATOM     20  C   UNL     1       3.779  52.339  15.350  0.00  0.00    +0.000 A 
ATOM     21  O   UNL     1       3.186  53.065  14.324  0.00  0.00    +0.000 OA
ATOM     22  C   UNL     1       3.753  52.833  16.624  0.00  0.00    +0.000 A 
ENDBRANCH  14  15
ENDBRANCH  12  13
ENDBRANCH   8   9
ENDBRANCH   7   8
TORSDOF 8
ENDMDL
MODEL 2
REMARK VINA RESULT:      -7.4     11.839     15.393
REMARK  Name = 
REMARK  8 active torsions:
REMARK  status: ('A' for Active; 'I' for Inactive)
REMARK    1  A    between atoms: C_2  and  O_3
REMARK    2  A    between atoms: C_2  and  C_31
REMARK    3  A    between atoms: O_3  and  C_4
REMARK    4  A    between atoms: C_4  and  C_5
REMARK    5  A    between atoms: C_7  and  O_8
REMARK    6  A    between atoms: O_8  and  C_9
REMARK    7  A    between atoms: C_12  and  C_13
REMARK    8  A    between atoms: C_14  and  C_15
REMARK                            x       y       z     vdW  Elec       q    Type
REMARK                         _______ _______ _______ _____ _____    ______ ____
ROOT
ATOM      5  C   UNL     1       6.694  58.245   9.870  0.00  0.00    +0.000 C 
ATOM      6  O   UNL     1       5.924  59.447   9.418  0.00  0.00    +0.000 OA
ATOM      7  C   UNL     1       4.932  58.974   8.385  0.00  0.00    +0.000 C 
ATOM     25  C   UNL     1       6.077  58.407   7.206  0.00  0.00    +0.000 C 
ATOM     26  O   UNL     1       5.633  59.292   6.076  0.00  0.00    +0.000 OA
ATOM     27  C   UNL     1       7.437  59.379   7.524  0.00  0.00    +0.000 C 
ATOM     28  O   UNL     1       6.877  60.513   8.324  0.00  0.00    +0.000 OA
ATOM     29  C   UNL     1       8.056  58.423   8.817  0.00  0.00    +0.000 C 
ATOM     30  O   UNL     1       7.898  57.113   8.083  0.00  0.00    +0.000 OA
ENDROOT
BRANCH   5   4
ATOM      4  C   UNL     1       5.850  57.109   9.035  0.00  0.00    +0.000 C 
BRANCH   4   3
ATOM      3  O   UNL     1       5.771  55.965   9.837  0.00  0.00    +0.000 OA
BRANCH   3   2
ATOM      1  O   UNL     1       4.944  55.797  11.048  0.00  0.00    +0.000 OA
ATOM      2  C   UNL     1       4.865  56.162  10.779  0.00  0.00    +0.000 C 
BRANCH   2  31
ATOM     31  C   UNL     1       3.578  56.478  11.058  0.00  0.00    +0.000 A 
ATOM     32  C   UNL     1       2.625  56.606  10.054  0.00  0.00    +0.000 A 
ATOM     33  C   UNL     1       1.298  56.394  10.411  0.00  0.00    +0.000 A 
ATOM     34  O   UNL     1       0.346  56.217   9.427  0.00  0.00    +0.000 OA
ATOM     35  C   UNL     1       0.923  56.370  11.751  0.00  0.00    +0.000 A 
ATOM     36  O   UNL     1      -0.197  55.625  12.131  0.00  0.00    +0.000 OA
ATOM     37  C   UNL     1       1.888  56.675  12.708  0.00  0.00    +0.000 A 
ATOM     38  O   UNL     1       1.554  56.717  14.064  0.00  0.00    +0.000 OA
ATOM     39  C   UNL     1       3.148  57.042  12.251  0.00  0.00    +0.000 A 
ENDBRANCH   2  31
ENDBRANCH   3   2
ENDBRANCH   4   3
ENDBRANCH   5   4
BRANCH   7   8
ATOM      8  O   UNL     1       4.772  60.388   7.765  0.00  0.00    +0.000 OA
BRANCH   8   9
ATOM      9  C   UNL     1       3.438  60.789   7.584  0.00  0.00    +0.000 A 
ATOM     10  C   UNL     1       3.051  62.009   8.150  0.00  0.00    +0.000 A 
ATOM     11  C   UNL     1       2.298  62.031   9.331  0.00  0.00    +0.000 A 
ATOM     12  C   UNL     1       1.754  60.868   9.875  0.00  0.00    +0.000 A 
ATOM     23  C   UNL     1       1.567  59.911   8.869  0.00  0.00    +0.000 A 
ATOM     24  C   UNL     1       2.386  59.881   7.736  0.00  0.00    +0.000 A 
BRANCH  12  13
ATOM     13  C   UNL     1       2.168  60.290  11.166  0.00  0.00    +0.000 C 
ATOM     14  C   UNL     1       2.032  61.163  12.168  0.00  0.00    +0.000 C 
BRANCH  14  15
ATOM     15  C   UNL     1       0.642  61.146  12.539  0.00  0.00    +0.000 A 
ATOM     16  C   UNL     1      -0.306  62.094  12.405  0.00  0.00    +0.000 A 
ATOM     17  C   UNL     1      -1.655  61.760  12.362  0.00  0.00    +0.000 A 
ATOM     18  O   UNL     1      -2.515  62.679  11.790  0.00  0.00    +0.000 OA
ATOM     19  C   UNL     1      -1.997  60.449  12.629  0.00  0.00    +0.000 A 
ATOM     20  C   UNL     1      -1.073  59.515  13.052  0.00  0.00    +0.000 A 
ATOM     21  O   UNL     1      -1.412  58.343  13.718  0.00  0.00    +0.000 OA
ATOM     22  C   UNL     1       0.240  59.881  12.964  0.00  0.00    +0.000 A 
ENDBRANCH  14  15
ENDBRANCH  12  13
ENDBRANCH   8   9
ENDBRANCH   7   8
TORSDOF 8
ENDMDL
MODEL 3
REMARK VINA RESULT:      -7.4     13.641     17.482
REMARK  Name = 
REMARK  8 active torsions:
REMARK  status: ('A' for Active; 'I' for Inactive)
REMARK    1  A    between atoms: C_2  and  O_3
REMARK    2  A    between atoms: C_2  and  C_31
REMARK    3  A    between atoms: O_3  and  C_4
REMARK    4  A    between atoms: C_4  and  C_5
REMARK    5  A    between atoms: C_7  and  O_8
REMARK    6  A    between atoms: O_8  and  C_9
REMARK    7  A    between atoms: C_12  and  C_13
REMARK    8  A    between atoms: C_14  and  C_15
REMARK                            x       y       z     vdW  Elec       q    Type
REMARK                         _______ _______ _______ _____ _____    ______ ____
ROOT
ATOM      5  C   UNL     1       1.334  60.502   7.915  0.00  0.00    +0.000 C 
ATOM      6  O   UNL     1       1.625  60.390   9.379  0.00  0.00    +0.000 OA
ATOM      7  C   UNL     1       1.260  61.714  10.004  0.00  0.00    +0.000 C 
ATOM     25  C   UNL     1       2.409  62.699   9.148  0.00  0.00    +0.000 C 
ATOM     26  O   UNL     1       3.133  63.228  10.352  0.00  0.00    +0.000 OA
ATOM     27  C   UNL     1       3.651  61.590   8.801  0.00  0.00    +0.000 C 
ATOM     28  O   UNL     1       3.386  60.460   9.746  0.00  0.00    +0.000 OA
ATOM     29  C   UNL     1       2.926  60.927   7.386  0.00  0.00    +0.000 C 
ATOM     30  O   UNL     1       2.574  62.270   6.793  0.00  0.00    +0.000 OA
ENDROOT
BRANCH   5   4
ATOM      4  C   UNL     1       0.645  61.993   7.934  0.00  0.00    +0.000 C 
BRANCH   4   3
ATOM      3  O   UNL     1      -0.481  61.950   7.104  0.00  0.00    +0.000 OA
BRANCH   3   2
ATOM      1  O   UNL     1      -1.325  62.885   7.873  0.00  0.00    +0.000 OA
ATOM      2  C   UNL     1      -1.507  62.482   7.745  0.00  0.00    +0.000 C 
BRANCH   2  31
ATOM     31  C   UNL     1      -2.496  62.288   8.650  0.00  0.00    +0.000 A 
ATOM     32  C   UNL     1      -2.460  62.883   9.905  0.00  0.00    +0.000 A 
ATOM     33  C   UNL     1      -3.679  63.090  10.542  0.00  0.00    +0.000 A 
ATOM     34  O   UNL     1      -3.743  63.926  11.639  0.00  0.00    +0.000 OA
ATOM     35  C   UNL     1      -4.830  62.453  10.087  0.00  0.00    +0.000 A 
ATOM     36  O   UNL     1      -6.073  63.054  10.309  0.00  0.00    +0.000 OA
ATOM     37  C   UNL     1      -4.702  61.525   9.058  0.00  0.00    +0.000 A 
ATOM     38  O   UNL     1      -5.815  60.817   8.598  0.00  0.00    +0.000 OA
ATOM     39  C   UNL     1      -3.419  61.254   8.595  0.00  0.00    +0.000 A 
ENDBRANCH   2  31
ENDBRANCH   3   2
ENDBRANCH   4   3
ENDBRANCH   5   4
BRANCH   7   8
ATOM      8  O   UNL     1       2.166  61.477  11.243  0.00  0.00    +0.000 OA
BRANCH   8   9
ATOM      9  C   UNL     1       1.461  61.268  12.439  0.00  0.00    +0.000 A 
ATOM     10  C   UNL     1       1.411  59.960  12.937  0.00  0.00    +0.000 A 
ATOM     11  C   UNL     1       0.249  59.193  12.787  0.00  0.00    +0.000 A 
ATOM     12  C   UNL     1      -0.941  59.750  12.318  0.00  0.00    +0.000 A 
ATOM     23  C   UNL     1      -0.964  61.125  12.584  0.00  0.00    +0.000 A 
ATOM     24  C   UNL     1       0.218  61.869  12.657  0.00  0.00    +0.000 A 
BRANCH  12  13
ATOM     13  C   UNL     1      -1.570  59.388  11.035  0.00  0.00    +0.000 C 
ATOM     14  C   UNL     1      -1.564  58.067  10.832  0.00  0.00    +0.000 C 
BRANCH  14  15
ATOM     15  C   UNL     1      -2.665  57.534  11.590  0.00  0.00    +0.000 A 
ATOM     16  C   UNL     1      -3.827  58.109  11.956  0.00  0.00    +0.000 A 
ATOM     17  C   UNL     1      -4.947  57.340  12.250  0.00  0.00    +0.000 A 
ATOM     18  O   UNL     1      -6.179  57.964  12.176  0.00  0.00    +0.000 OA
ATOM     19  C   UNL     1      -4.782  55.970  12.316  0.00  0.00    +0.000 A 
ATOM     20  C   UNL     1      -3.542  55.370  12.228  0.00  0.00    +0.000 A 
ATOM     21  O   UNL     1      -3.273  54.088  12.694  0.00  0.00    +0.000 OA
ATOM     22  C   UNL     1      -2.510  56.171  11.831  0.00  0.00    +0.000 A 
ENDBRANCH  14  15
ENDBRANCH  12  13
ENDBRANCH   8   9
ENDBRANCH   7   8
TORSDOF 8
ENDMDL
MODEL 4
REMARK VINA RESULT:      -7.3     24.325     27.879
REMARK  Name = 
REMARK  8 active torsions:
REMARK  status: ('A' for Active; 'I' for Inactive)
REMARK    1  A    between atoms: C_2  and  O_3
REMARK    2  A    between atoms: C_2  and  C_31
REMARK    3  A    between atoms: O_3  and  C_4
REMARK    4  A    between atoms: C_4  and  C_5
REMARK    5  A    between atoms: C_7  and  O_8
REMARK    6  A    between atoms: O_8  and  C_9
REMARK    7  A    between atoms: C_12  and  C_13
REMARK    8  A    between atoms: C_14  and  C_15
REMARK                            x       y       z     vdW  Elec       q    Type
REMARK                         _______ _______ _______ _____ _____    ______ ____
ROOT
ATOM      5  C   UNL     1      25.338  51.249   4.435  0.00  0.00    +0.000 C 
ATOM      6  O   UNL     1      25.961  52.601   4.274  0.00  0.00    +0.000 OA
ATOM      7  C   UNL     1      26.632  52.619   2.923  0.00  0.00    +0.000 C 
ATOM     25  C   UNL     1      27.791  51.358   3.222  0.00  0.00    +0.000 C 
ATOM     26  O   UNL     1      29.025  52.175   2.966  0.00  0.00    +0.000 OA
ATOM     27  C   UNL     1      27.997  51.447   4.908  0.00  0.00    +0.000 C 
ATOM     28  O   UNL     1      27.457  52.799   5.256  0.00  0.00    +0.000 OA
ATOM     29  C   UNL     1      26.621  50.497   5.320  0.00  0.00    +0.000 C 
ATOM     30  O   UNL     1      26.925  49.408   4.320  0.00  0.00    +0.000 OA
ENDROOT
BRANCH   5   4
ATOM      4  C   UNL     1      25.664  50.669   2.933  0.00  0.00    +0.000 C 
BRANCH   4   3
ATOM      3  O   UNL     1      24.471  50.157   2.408  0.00  0.00    +0.000 OA
BRANCH   3   2
ATOM      1  O   UNL     1      24.540  48.920   1.606  0.00  0.00    +0.000 OA
ATOM      2  C   UNL     1      24.760  49.294   1.450  0.00  0.00    +0.000 C 
BRANCH   2  31
ATOM     31  C   UNL     1      25.723  48.773   0.652  0.00  0.00    +0.000 A 
ATOM     32  C   UNL     1      26.393  47.603   0.988  0.00  0.00    +0.000 A 
ATOM     33  C   UNL     1      26.935  46.863  -0.057  0.00  0.00    +0.000 A 
ATOM     34  O   UNL     1      27.350  45.566   0.168  0.00  0.00    +0.000 OA
ATOM     35  C   UNL     1      27.071  47.424  -1.324  0.00  0.00    +0.000 A 
ATOM     36  O   UNL     1      27.053  46.588  -2.444  0.00  0.00    +0.000 OA
ATOM     37  C   UNL     1      26.756  48.771  -1.481  0.00  0.00    +0.000 A 
ATOM     38  O   UNL     1      26.923  49.400  -2.718  0.00  0.00    +0.000 OA
ATOM     39  C   UNL     1      26.384  49.479  -0.344  0.00  0.00    +0.000 A 
ENDBRANCH   2  31
ENDBRANCH   3   2
ENDBRANCH   4   3
ENDBRANCH   5   4
BRANCH   7   8
ATOM      8  O   UNL     1      27.581  53.784   3.313  0.00  0.00    +0.000 OA
BRANCH   8   9
ATOM      9  C   UNL     1      27.262  55.012   2.711  0.00  0.00    +0.000 A 
ATOM     10  C   UNL     1      26.764  56.025   3.539  0.00  0.00    +0.000 A 
ATOM     11  C   UNL     1      25.395  56.322   3.542  0.00  0.00    +0.000 A 
ATOM     12  C   UNL     1      24.522  55.768   2.607  0.00  0.00    +0.000 A 
ATOM     23  C   UNL     1      25.224  55.419   1.446  0.00  0.00    +0.000 A 
ATOM     24  C   UNL     1      26.575  55.061   1.495  0.00  0.00    +0.000 A 
BRANCH  12  13
ATOM     13  C   UNL     1      23.441  54.826   2.946  0.00  0.00    +0.000 C 
ATOM     14  C   UNL     1      22.661  55.294   3.925  0.00  0.00    +0.000 C 
BRANCH  14  15
ATOM     15  C   UNL     1      21.745  56.216   3.309  0.00  0.00    +0.000 A 
ATOM     16  C   UNL     1      20.746  55.995   2.432  0.00  0.00    +0.000 A 
ATOM     17  C   UNL     1      19.683  56.883   2.316  0.00  0.00    +0.000 A 
ATOM     18  O   UNL     1      18.513  56.399   1.760  0.00  0.00    +0.000 OA
ATOM     19  C   UNL     1      19.770  58.078   3.004  0.00  0.00    +0.000 A 
ATOM     20  C   UNL     1      20.910  58.458   3.683  0.00  0.00    +0.000 A 
ATOM     21  O   UNL     1      21.201  59.775   4.022  0.00  0.00    +0.000 OA
ATOM     22  C   UNL     1      21.865  57.496   3.847  0.00  0.00    +0.000 A 
ENDBRANCH  14  15
ENDBRANCH  12  13
ENDBRANCH   8   9
ENDBRANCH   7   8
TORSDOF 8
ENDMDL
MODEL 5
REMARK VINA RESULT:      -7.3     18.671     21.848
REMARK  Name = 
REMARK  8 active torsions:
REMARK  status: ('A' for Active; 'I' for Inactive)
REMARK    1  A    between atoms: C_2  and  O_3
REMARK    2  A    between atoms: C_2  and  C_31
REMARK    3  A    between atoms: O_3  and  C_4
REMARK    4  A    between atoms: C_4  and  C_5
REMARK    5  A    between atoms: C_7  and  O_8
REMARK    6  A    between atoms: O_8  and  C_9
REMARK    7  A    between atoms: C_12  and  C_13
REMARK    8  A    between atoms: C_14  and  C_15
REMARK                            x       y       z     vdW  Elec       q    Type
REMARK                         _______ _______ _______ _____ _____    ______ ____
ROOT
ATOM      5  C   UNL     1      23.569  70.048  15.326  0.00  0.00    +0.000 C 
ATOM      6  O   UNL     1      23.340  68.912  16.275  0.00  0.00    +0.000 OA
ATOM      7  C   UNL     1      22.114  69.255  17.085  0.00  0.00    +0.000 C 
ATOM     25  C   UNL     1      22.737  70.682  17.857  0.00  0.00    +0.000 C 
ATOM     26  O   UNL     1      22.572  70.214  19.274  0.00  0.00    +0.000 OA
ATOM     27  C   UNL     1      24.411  70.382  17.879  0.00  0.00    +0.000 C 
ATOM     28  O   UNL     1      24.506  68.907  17.648  0.00  0.00    +0.000 OA
ATOM     29  C   UNL     1      24.723  70.923  16.274  0.00  0.00    +0.000 C 
ATOM     30  O   UNL     1      23.921  72.194  16.418  0.00  0.00    +0.000 OA
ENDROOT
BRANCH   5   4
ATOM      4  C   UNL     1      22.217  70.912  15.675  0.00  0.00    +0.000 C 
BRANCH   4   3
ATOM      3  O   UNL     1      21.729  71.440  14.474  0.00  0.00    +0.000 OA
BRANCH   3   2
ATOM      1  O   UNL     1      20.345  70.972  14.679  0.00  0.00    +0.000 OA
ATOM      2  C   UNL     1      20.519  70.958  14.253  0.00  0.00    +0.000 C 
BRANCH   2  31
ATOM     31  C   UNL     1      19.780  69.996  13.650  0.00  0.00    +0.000 A 
ATOM     32  C   UNL     1      19.582  68.753  14.240  0.00  0.00    +0.000 A 
ATOM     33  C   UNL     1      18.439  68.053  13.870  0.00  0.00    +0.000 A 
ATOM     34  O   UNL     1      18.032  66.966  14.618  0.00  0.00    +0.000 OA
ATOM     35  C   UNL     1      17.710  68.433  12.747  0.00  0.00    +0.000 A 
ATOM     36  O   UNL     1      16.342  68.152  12.696  0.00  0.00    +0.000 OA
ATOM     37  C   UNL     1      18.220  69.455  11.950  0.00  0.00    +0.000 A 
ATOM     38  O   UNL     1      17.557  69.842  10.782  0.00  0.00    +0.000 OA
ATOM     39  C   UNL     1      19.457  69.984  12.300  0.00  0.00    +0.000 A 
ENDBRANCH   2  31
ENDBRANCH   3   2
ENDBRANCH   4   3
ENDBRANCH   5   4
BRANCH   7   8
ATOM      8  O   UNL     1      22.497  68.287  18.236  0.00  0.00    +0.000 OA
BRANCH   8   9
ATOM      9  C   UNL     1      21.796  67.071  18.223  0.00  0.00    +0.000 A 
ATOM     10  C   UNL     1      22.537  65.898  18.409  0.00  0.00    +0.000 A 
ATOM     11  C   UNL     1      22.842  65.076  17.316  0.00  0.00    +0.000 A 
ATOM     12  C   UNL     1      22.272  65.286  16.061  0.00  0.00    +0.000 A 
ATOM     23  C   UNL     1      21.048  65.952  16.196  0.00  0.00    +0.000 A 
ATOM     24  C   UNL     1      20.808  66.819  17.267  0.00  0.00    +0.000 A 
BRANCH  12  13
ATOM     13  C   UNL     1      23.036  65.694  14.868  0.00  0.00    +0.000 C 
ATOM     14  C   UNL     1      23.381  64.645  14.116  0.00  0.00    +0.000 C 
BRANCH  14  15
ATOM     15  C   UNL     1      22.223  64.307  13.332  0.00  0.00    +0.000 A 
ATOM     16  C   UNL     1      21.501  63.170  13.292  0.00  0.00    +0.000 A 
ATOM     17  C   UNL     1      20.178  63.174  12.866  0.00  0.00    +0.000 A 
ATOM     18  O   UNL     1      19.383  62.114  13.263  0.00  0.00    +0.000 OA
ATOM     19  C   UNL     1      19.683  64.346  12.329  0.00  0.00    +0.000 A 
ATOM     20  C   UNL     1      20.483  65.445  12.091  0.00  0.00    +0.000 A 
ATOM     21  O   UNL     1      20.154  66.458  11.198  0.00  0.00    +0.000 OA
ATOM     22  C   UNL     1      21.736  65.410  12.633  0.00  0.00    +0.000 A 
ENDBRANCH  14  15
ENDBRANCH  12  13
ENDBRANCH   8   9
ENDBRANCH   7   8
TORSDOF 8
ENDMDL
MODEL 6
REMARK VINA RESULT:      -7.3     42.669     47.765
REMARK  Name = 
REMARK  8 active torsions:
REMARK  status: ('A' for Active; 'I' for Inactive)
REMARK    1  A    between atoms: C_2  and  O_3
REMARK    2  A    between atoms: C_2  and  C_31
REMARK    3  A    between atoms: O_3  and  C_4
REMARK    4  A    between atoms: C_4  and  C_5
REMARK    5  A    between atoms: C_7  and  O_8
REMARK    6  A    between atoms: O_8  and  C_9
REMARK    7  A    between atoms: C_12  and  C_13
REMARK    8  A    between atoms: C_14  and  C_15
REMARK                            x       y       z     vdW  Elec       q    Type
REMARK                         _______ _______ _______ _____ _____    ______ ____
ROOT
ATOM      5  C   UNL     1      25.915  50.764 -21.344  0.00  0.00    +0.000 C 
ATOM      6  O   UNL     1      26.936  51.859 -21.304  0.00  0.00    +0.000 OA
ATOM      7  C   UNL     1      26.397  52.932 -20.392  0.00  0.00    +0.000 C 
ATOM     25  C   UNL     1      24.986  53.341 -21.322  0.00  0.00    +0.000 C 
ATOM     26  O   UNL     1      25.315  54.791 -21.531  0.00  0.00    +0.000 OA
ATOM     27  C   UNL     1      25.463  52.933 -22.903  0.00  0.00    +0.000 C 
ATOM     28  O   UNL     1      26.954  52.848 -22.809  0.00  0.00    +0.000 OA
ATOM     29  C   UNL     1      25.094  51.255 -22.787  0.00  0.00    +0.000 C 
ATOM     30  O   UNL     1      23.736  51.474 -22.165  0.00  0.00    +0.000 OA
ENDROOT
BRANCH   5   4
ATOM      4  C   UNL     1      24.883  51.376 -20.221  0.00  0.00    +0.000 C 
BRANCH   4   3
ATOM      3  O   UNL     1      24.473  50.318 -19.401  0.00  0.00    +0.000 OA
BRANCH   3   2
ATOM      1  O   UNL     1      25.174  49.876 -18.180  0.00  0.00    +0.000 OA
ATOM      2  C   UNL     1      25.205  50.319 -18.301  0.00  0.00    +0.000 C 
BRANCH   2  31
ATOM     31  C   UNL     1      25.481  50.940 -17.129  0.00  0.00    +0.000 A 
ATOM     32  C   UNL     1      24.530  51.713 -16.474  0.00  0.00    +0.000 A 
ATOM     33  C   UNL     1      24.671  51.858 -15.098  0.00  0.00    +0.000 A 
ATOM     34  O   UNL     1      23.622  52.357 -14.353  0.00  0.00    +0.000 OA
ATOM     35  C   UNL     1      25.865  51.513 -14.471  0.00  0.00    +0.000 A 
ATOM     36  O   UNL     1      25.839  51.111 -13.132  0.00  0.00    +0.000 OA
ATOM     37  C   UNL     1      26.939  51.131 -15.271  0.00  0.00    +0.000 A 
ATOM     38  O   UNL     1      28.176  50.824 -14.699  0.00  0.00    +0.000 OA
ATOM     39  C   UNL     1      26.760  51.179 -16.649  0.00  0.00    +0.000 A 
ENDBRANCH   2  31
ENDBRANCH   3   2
ENDBRANCH   4   3
ENDBRANCH   5   4
BRANCH   7   8
ATOM      8  O   UNL     1      27.302  54.032 -21.009  0.00  0.00    +0.000 OA
BRANCH   8   9
ATOM      9  C   UNL     1      28.328  54.476 -20.159  0.00  0.00    +0.000 A 
ATOM     10  C   UNL     1      29.346  55.250 -20.729  0.00  0.00    +0.000 A 
ATOM     11  C   UNL     1      30.596  54.680 -21.001  0.00  0.00    +0.000 A 
ATOM     12  C   UNL     1      30.933  53.404 -20.551  0.00  0.00    +0.000 A 
ATOM     23  C   UNL     1      30.178  53.082 -19.415  0.00  0.00    +0.000 A 
ATOM     24  C   UNL     1      28.903  53.620 -19.216  0.00  0.00    +0.000 A 
BRANCH  12  13
ATOM     13  C   UNL     1      31.176  52.254 -21.441  0.00  0.00    +0.000 C 
ATOM     14  C   UNL     1      30.442  52.323 -22.555  0.00  0.00    +0.000 C 
BRANCH  14  15
ATOM     15  C   UNL     1      31.129  53.228 -23.439  0.00  0.00    +0.000 A 
ATOM     16  C   UNL     1      32.430  53.287 -23.784  0.00  0.00    +0.000 A 
ATOM     17  C   UNL     1      32.830  53.882 -24.975  0.00  0.00    +0.000 A 
ATOM     18  O   UNL     1      34.069  53.524 -25.475  0.00  0.00    +0.000 OA
ATOM     19  C   UNL     1      31.872  54.556 -25.706  0.00  0.00    +0.000 A 
ATOM     20  C   UNL     1      30.590  54.759 -25.236  0.00  0.00    +0.000 A 
ATOM     21  O   UNL     1      29.743  55.752 -25.713  0.00  0.00    +0.000 OA
ATOM     22  C   UNL     1      30.238  54.056 -24.119  0.00  0.00    +0.000 A 
ENDBRANCH  14  15
ENDBRANCH  12  13
ENDBRANCH   8   9
ENDBRANCH   7   8
TORSDOF 8
ENDMDL
MODEL 7
REMARK VINA RESULT:      -7.3     41.895     47.312
REMARK  Name = 
REMARK  8 active torsions:
REMARK  status: ('A' for Active; 'I' for Inactive)
REMARK    1  A    between atoms: C_2  and  O_3
REMARK    2  A    between atoms: C_2  and  C_31
REMARK    3  A    between atoms: O_3  and  C_4
REMARK    4  A    between atoms: C_4  and  C_5
REMARK    5  A    between atoms: C_7  and  O_8
REMARK    6  A    between atoms: O_8  and  C_9
REMARK    7  A    between atoms: C_12  and  C_13
REMARK    8  A    between atoms: C_14  and  C_15
REMARK                            x       y       z     vdW  Elec       q    Type
REMARK                         _______ _______ _______ _____ _____    ______ ____
ROOT
ATOM      5  C   UNL     1      23.142  52.054 -21.896  0.00  0.00    +0.000 C 
ATOM      6  O   UNL     1      23.944  50.866 -21.462  0.00  0.00    +0.000 OA
ATOM      7  C   UNL     1      25.261  50.932 -22.194  0.00  0.00    +0.000 C 
ATOM     25  C   UNL     1      24.636  50.788 -23.810  0.00  0.00    +0.000 C 
ATOM     26  O   UNL     1      25.389  49.546 -24.190  0.00  0.00    +0.000 OA
ATOM     27  C   UNL     1      23.193  49.921 -23.565  0.00  0.00    +0.000 C 
ATOM     28  O   UNL     1      23.367  49.330 -22.202  0.00  0.00    +0.000 OA
ATOM     29  C   UNL     1      22.223  51.281 -23.143  0.00  0.00    +0.000 C 
ATOM     30  O   UNL     1      22.708  52.135 -24.289  0.00  0.00    +0.000 OA
ENDROOT
BRANCH   5   4
ATOM      4  C   UNL     1      24.292  52.781 -22.815  0.00  0.00    +0.000 C 
BRANCH   4   3
ATOM      3  O   UNL     1      24.261  54.151 -22.528  0.00  0.00    +0.000 OA
BRANCH   3   2
ATOM      1  O   UNL     1      25.262  54.911 -21.756  0.00  0.00    +0.000 OA
ATOM      2  C   UNL     1      25.363  54.479 -21.877  0.00  0.00    +0.000 C 
BRANCH   2  31
ATOM     31  C   UNL     1      26.718  54.464 -21.872  0.00  0.00    +0.000 A 
ATOM     32  C   UNL     1      27.449  54.325 -23.046  0.00  0.00    +0.000 A 
ATOM     33  C   UNL     1      28.740  54.841 -23.052  0.00  0.00    +0.000 A 
ATOM     34  O   UNL     1      29.406  54.998 -24.250  0.00  0.00    +0.000 OA
ATOM     35  C   UNL     1      29.366  55.190 -21.859  0.00  0.00    +0.000 A 
ATOM     36  O   UNL     1      30.346  56.187 -21.871  0.00  0.00    +0.000 OA
ATOM     37  C   UNL     1      28.710  54.902 -20.665  0.00  0.00    +0.000 A 
ATOM     38  O   UNL     1      29.315  55.182 -19.437  0.00  0.00    +0.000 OA
ATOM     39  C   UNL     1      27.496  54.229 -20.748  0.00  0.00    +0.000 A 
ENDBRANCH   2  31
ENDBRANCH   3   2
ENDBRANCH   4   3
ENDBRANCH   5   4
BRANCH   7   8
ATOM      8  O   UNL     1      25.539  49.416 -22.009  0.00  0.00    +0.000 OA
BRANCH   8   9
ATOM      9  C   UNL     1      26.637  49.129 -21.183  0.00  0.00    +0.000 A 
ATOM     10  C   UNL     1      26.376  48.501 -19.960  0.00  0.00    +0.000 A 
ATOM     11  C   UNL     1      26.401  49.238 -18.769  0.00  0.00    +0.000 A 
ATOM     12  C   UNL     1      26.863  50.553 -18.732  0.00  0.00    +0.000 A 
ATOM     23  C   UNL     1      27.757  50.777 -19.786  0.00  0.00    +0.000 A 
ATOM     24  C   UNL     1      27.655  50.067 -20.986  0.00  0.00    +0.000 A 
BRANCH  12  13
ATOM     13  C   UNL     1      26.011  51.717 -18.425  0.00  0.00    +0.000 C 
ATOM     14  C   UNL     1      25.230  51.496 -17.364  0.00  0.00    +0.000 C 
BRANCH  14  15
ATOM     15  C   UNL     1      26.050  51.716 -16.203  0.00  0.00    +0.000 A 
ATOM     16  C   UNL     1      26.122  51.029 -15.046  0.00  0.00    +0.000 A 
ATOM     17  C   UNL     1      27.264  51.072 -14.255  0.00  0.00    +0.000 A 
ATOM     18  O   UNL     1      27.450  50.037 -13.357  0.00  0.00    +0.000 OA
ATOM     19  C   UNL     1      28.252  51.970 -14.607  0.00  0.00    +0.000 A 
ATOM     20  C   UNL     1      28.085  52.892 -15.620  0.00  0.00    +0.000 A 
ATOM     21  O   UNL     1      28.841  54.053 -15.737  0.00  0.00    +0.000 OA
ATOM     22  C   UNL     1      26.992  52.719 -16.421  0.00  0.00    +0.000 A 
ENDBRANCH  14  15
ENDBRANCH  12  13
ENDBRANCH   8   9
ENDBRANCH   7   8
TORSDOF 8
ENDMDL
MODEL 8
REMARK VINA RESULT:      -7.3     12.437     14.961
REMARK  Name = 
REMARK  8 active torsions:
REMARK  status: ('A' for Active; 'I' for Inactive)
REMARK    1  A    between atoms: C_2  and  O_3
REMARK    2  A    between atoms: C_2  and  C_31
REMARK    3  A    between atoms: O_3  and  C_4
REMARK    4  A    between atoms: C_4  and  C_5
REMARK    5  A    between atoms: C_7  and  O_8
REMARK    6  A    between atoms: O_8  and  C_9
REMARK    7  A    between atoms: C_12  and  C_13
REMARK    8  A    between atoms: C_14  and  C_15
REMARK                            x       y       z     vdW  Elec       q    Type
REMARK                         _______ _______ _______ _____ _____    ______ ____
ROOT
ATOM      5  C   UNL     1       6.099  57.280   8.079  0.00  0.00    +0.000 C 
ATOM      6  O   UNL     1       4.686  57.397   8.562  0.00  0.00    +0.000 OA
ATOM      7  C   UNL     1       4.731  58.115   9.888  0.00  0.00    +0.000 C 
ATOM     25  C   UNL     1       5.661  56.933  10.760  0.00  0.00    +0.000 C 
ATOM     26  O   UNL     1       4.652  56.661  11.838  0.00  0.00    +0.000 OA
ATOM     27  C   UNL     1       5.278  55.492   9.941  0.00  0.00    +0.000 C 
ATOM     28  O   UNL     1       4.033  55.839   9.186  0.00  0.00    +0.000 OA
ATOM     29  C   UNL     1       6.423  55.685   8.669  0.00  0.00    +0.000 C 
ATOM     30  O   UNL     1       7.562  56.054   9.588  0.00  0.00    +0.000 OA
ENDROOT
BRANCH   5   4
ATOM      4  C   UNL     1       6.817  58.161   9.264  0.00  0.00    +0.000 C 
BRANCH   4   3
ATOM      3  O   UNL     1       7.419  59.272   8.661  0.00  0.00    +0.000 OA
BRANCH   3   2
ATOM      1  O   UNL     1       8.879  59.334   8.459  0.00  0.00    +0.000 OA
ATOM      2  C   UNL     1       8.655  58.957   8.318  0.00  0.00    +0.000 C 
BRANCH   2  31
ATOM     31  C   UNL     1       9.467  58.457   7.355  0.00  0.00    +0.000 A 
ATOM     32  C   UNL     1      10.052  59.278   6.398  0.00  0.00    +0.000 A 
ATOM     33  C   UNL     1      11.234  58.830   5.819  0.00  0.00    +0.000 A 
ATOM     34  O   UNL     1      12.013  59.706   5.090  0.00  0.00    +0.000 OA
ATOM     35  C   UNL     1      11.630  57.503   5.959  0.00  0.00    +0.000 A 
ATOM     36  O   UNL     1      12.992  57.190   5.906  0.00  0.00    +0.000 OA
ATOM     37  C   UNL     1      10.759  56.622   6.595  0.00  0.00    +0.000 A 
ATOM     38  O   UNL     1      11.082  55.268   6.717  0.00  0.00    +0.000 OA
ATOM     39  C   UNL     1       9.523  57.119   6.992  0.00  0.00    +0.000 A 
ENDBRANCH   2  31
ENDBRANCH   3   2
ENDBRANCH   4   3
ENDBRANCH   5   4
BRANCH   7   8
ATOM      8  O   UNL     1       3.348  57.566  10.330  0.00  0.00    +0.000 OA
BRANCH   8   9
ATOM      9  C   UNL     1       2.265  58.390   9.983  0.00  0.00    +0.000 A 
ATOM     10  C   UNL     1       2.078  59.558  10.732  0.00  0.00    +0.000 A 
ATOM     11  C   UNL     1       1.072  59.616  11.705  0.00  0.00    +0.000 A 
ATOM     12  C   UNL     1       0.116  58.609  11.833  0.00  0.00    +0.000 A 
ATOM     23  C   UNL     1      -0.042  57.942  10.611  0.00  0.00    +0.000 A 
ATOM     24  C   UNL     1       1.009  57.846   9.695  0.00  0.00    +0.000 A 
BRANCH  12  13
ATOM     13  C   UNL     1       0.005  57.723  13.006  0.00  0.00    +0.000 C 
ATOM     14  C   UNL     1      -1.139  57.915  13.668  0.00  0.00    +0.000 C 
BRANCH  14  15
ATOM     15  C   UNL     1      -2.153  57.190  12.950  0.00  0.00    +0.000 A 
ATOM     16  C   UNL     1      -2.161  55.918  12.506  0.00  0.00    +0.000 A 
ATOM     17  C   UNL     1      -3.357  55.246  12.273  0.00  0.00    +0.000 A 
ATOM     18  O   UNL     1      -3.313  53.864  12.260  0.00  0.00    +0.000 OA
ATOM     19  C   UNL     1      -4.525  55.978  12.350  0.00  0.00    +0.000 A 
ATOM     20  C   UNL     1      -4.530  57.347  12.521  0.00  0.00    +0.000 A 
ATOM     21  O   UNL     1      -5.610  58.160  12.193  0.00  0.00    +0.000 OA
ATOM     22  C   UNL     1      -3.335  57.920  12.852  0.00  0.00    +0.000 A 
ENDBRANCH  14  15
ENDBRANCH  12  13
ENDBRANCH   8   9
ENDBRANCH   7   8
TORSDOF 8
ENDMDL
MODEL 9
REMARK VINA RESULT:      -7.3      2.610      7.668
REMARK  Name = 
REMARK  8 active torsions:
REMARK  status: ('A' for Active; 'I' for Inactive)
REMARK    1  A    between atoms: C_2  and  O_3
REMARK    2  A    between atoms: C_2  and  C_31
REMARK    3  A    between atoms: O_3  and  C_4
REMARK    4  A    between atoms: C_4  and  C_5
REMARK    5  A    between atoms: C_7  and  O_8
REMARK    6  A    between atoms: O_8  and  C_9
REMARK    7  A    between atoms: C_12  and  C_13
REMARK    8  A    between atoms: C_14  and  C_15
REMARK                            x       y       z     vdW  Elec       q    Type
REMARK                         _______ _______ _______ _____ _____    ______ ____
ROOT
ATOM      5  C   UNL     1       0.360  53.373  23.010  0.00  0.00    +0.000 C 
ATOM      6  O   UNL     1       0.915  54.320  24.028  0.00  0.00    +0.000 OA
ATOM      7  C   UNL     1       2.418  54.231  23.941  0.00  0.00    +0.000 C 
ATOM     25  C   UNL     1       2.578  52.561  24.397  0.00  0.00    +0.000 C 
ATOM     26  O   UNL     1       3.451  52.779  25.599  0.00  0.00    +0.000 OA
ATOM     27  C   UNL     1       1.197  52.313  25.359  0.00  0.00    +0.000 C 
ATOM     28  O   UNL     1       0.762  53.701  25.712  0.00  0.00    +0.000 OA
ATOM     29  C   UNL     1       0.108  52.017  24.057  0.00  0.00    +0.000 C 
ATOM     30  O   UNL     1       1.031  51.057  23.345  0.00  0.00    +0.000 OA
ENDROOT
BRANCH   5   4
ATOM      4  C   UNL     1       1.781  52.924  22.320  0.00  0.00    +0.000 C 
BRANCH   4   3
ATOM      3  O   UNL     1       1.580  52.868  20.935  0.00  0.00    +0.000 OA
BRANCH   3   2
ATOM      1  O   UNL     1       2.104  53.894  20.013  0.00  0.00    +0.000 OA
ATOM      2  C   UNL     1       2.379  53.743  20.350  0.00  0.00    +0.000 C 
BRANCH   2  31
ATOM     31  C   UNL     1       3.621  53.993  19.870  0.00  0.00    +0.000 A 
ATOM     32  C   UNL     1       4.276  55.190  20.135  0.00  0.00    +0.000 A 
ATOM     33  C   UNL     1       5.666  55.172  20.094  0.00  0.00    +0.000 A 
ATOM     34  O   UNL     1       6.379  56.229  20.625  0.00  0.00    +0.000 OA
ATOM     35  C   UNL     1       6.341  54.103  19.513  0.00  0.00    +0.000 A 
ATOM     36  O   UNL     1       7.631  53.792  19.953  0.00  0.00    +0.000 OA
ATOM     37  C   UNL     1       5.588  53.117  18.880  0.00  0.00    +0.000 A 
ATOM     38  O   UNL     1       6.216  52.049  18.235  0.00  0.00    +0.000 OA
ATOM     39  C   UNL     1       4.212  53.303  18.821  0.00  0.00    +0.000 A 
ENDBRANCH   2  31
ENDBRANCH   3   2
ENDBRANCH   4   3
ENDBRANCH   5   4
BRANCH   7   8
ATOM      8  O   UNL     1       2.621  54.793  25.374  0.00  0.00    +0.000 OA
BRANCH   8   9
ATOM      9  C   UNL     1       3.496  55.889  25.443  0.00  0.00    +0.000 A 
ATOM     10  C   UNL     1       3.955  56.424  24.233  0.00  0.00    +0.000 A 
ATOM     11  C   UNL     1       5.254  56.145  23.787  0.00  0.00    +0.000 A 
ATOM     12  C   UNL     1       6.184  55.498  24.600  0.00  0.00    +0.000 A 
ATOM     23  C   UNL     1       5.869  55.707  25.948  0.00  0.00    +0.000 A 
ATOM     24  C   UNL     1       4.550  55.913  26.361  0.00  0.00    +0.000 A 
BRANCH  12  13
ATOM     13  C   UNL     1       6.726  54.155  24.323  0.00  0.00    +0.000 C 
ATOM     14  C   UNL     1       7.609  54.172  23.321  0.00  0.00    +0.000 C 
BRANCH  14  15
ATOM     15  C   UNL     1       8.854  54.624  23.882  0.00  0.00    +0.000 A 
ATOM     16  C   UNL     1       9.592  54.111  24.887  0.00  0.00    +0.000 A 
ATOM     17  C   UNL     1      10.955  54.368  24.980  0.00  0.00    +0.000 A 
ATOM     18  O   UNL     1      11.714  53.487  25.729  0.00  0.00    +0.000 OA
ATOM     19  C   UNL     1      11.491  55.297  24.109  0.00  0.00    +0.000 A 
ATOM     20  C   UNL     1      10.708  56.051  23.259  0.00  0.00    +0.000 A 
ATOM     21  O   UNL     1      11.124  57.250  22.691  0.00  0.00    +0.000 OA
ATOM     22  C   UNL     1       9.402  55.669  23.143  0.00  0.00    +0.000 A 
ENDBRANCH  14  15
ENDBRANCH  12  13
ENDBRANCH   8   9
ENDBRANCH   7   8
TORSDOF 8
ENDMDL
MODEL 10
REMARK VINA RESULT:      -7.2     38.622     42.006
REMARK  Name = 
REMARK  8 active torsions:
REMARK  status: ('A' for Active; 'I' for Inactive)
REMARK    1  A    between atoms: C_2  and  O_3
REMARK    2  A    between atoms: C_2  and  C_31
REMARK    3  A    between atoms: O_3  and  C_4
REMARK    4  A    between atoms: C_4  and  C_5
REMARK    5  A    between atoms: C_7  and  O_8
REMARK    6  A    between atoms: O_8  and  C_9
REMARK    7  A    between atoms: C_12  and  C_13
REMARK    8  A    between atoms: C_14  and  C_15
REMARK                            x       y       z     vdW  Elec       q    Type
REMARK                         _______ _______ _______ _____ _____    ______ ____
ROOT
ATOM      5  C   UNL     1      30.345  60.601  -9.194  0.00  0.00    +0.000 C 
ATOM      6  O   UNL     1      31.465  60.899 -10.142  0.00  0.00    +0.000 OA
ATOM      7  C   UNL     1      32.342  59.673 -10.190  0.00  0.00    +0.000 C 
ATOM     25  C   UNL     1      32.833  59.675  -8.522  0.00  0.00    +0.000 C 
ATOM     26  O   UNL     1      34.312  59.772  -8.765  0.00  0.00    +0.000 OA
ATOM     27  C   UNL     1      32.722  61.322  -8.112  0.00  0.00    +0.000 C 
ATOM     28  O   UNL     1      32.694  62.012  -9.440  0.00  0.00    +0.000 OA
ATOM     29  C   UNL     1      31.032  61.322  -7.778  0.00  0.00    +0.000 C 
ATOM     30  O   UNL     1      31.077  60.071  -6.934  0.00  0.00    +0.000 OA
ENDROOT
BRANCH   5   4
ATOM      4  C   UNL     1      30.708  59.026  -8.903  0.00  0.00    +0.000 C 
BRANCH   4   3
ATOM      3  O   UNL     1      29.638  58.252  -9.367  0.00  0.00    +0.000 OA
BRANCH   3   2
ATOM      1  O   UNL     1      29.005  57.653  -8.176  0.00  0.00    +0.000 OA
ATOM      2  C   UNL     1      28.808  58.023  -8.365  0.00  0.00    +0.000 C 
BRANCH   2  31
ATOM     31  C   UNL     1      27.516  57.919  -7.970  0.00  0.00    +0.000 A 
ATOM     32  C   UNL     1      26.679  56.930  -8.473  0.00  0.00    +0.000 A 
ATOM     33  C   UNL     1      25.605  56.546  -7.678  0.00  0.00    +0.000 A 
ATOM     34  O   UNL     1      24.915  55.387  -7.974  0.00  0.00    +0.000 OA
ATOM     35  C   UNL     1      25.215  57.327  -6.594  0.00  0.00    +0.000 A 
ATOM     36  O   UNL     1      24.579  56.716  -5.509  0.00  0.00    +0.000 OA
ATOM     37  C   UNL     1      25.855  58.548  -6.401  0.00  0.00    +0.000 A 
ATOM     38  O   UNL     1      25.468  59.397  -5.361  0.00  0.00    +0.000 OA
ATOM     39  C   UNL     1      26.801  58.931  -7.345  0.00  0.00    +0.000 A 
ENDBRANCH   2  31
ENDBRANCH   3   2
ENDBRANCH   4   3
ENDBRANCH   5   4
BRANCH   7   8
ATOM      8  O   UNL     1      33.573  60.466 -10.705  0.00  0.00    +0.000 OA
BRANCH   8   9
ATOM      9  C   UNL     1      33.975  60.122 -12.006  0.00  0.00    +0.000 A 
ATOM     10  C   UNL     1      33.995  58.761 -12.335  0.00  0.00    +0.000 A 
ATOM     11  C   UNL     1      35.211  58.068 -12.390  0.00  0.00    +0.000 A 
ATOM     12  C   UNL     1      36.436  58.729 -12.310  0.00  0.00    +0.000 A 
ATOM     23  C   UNL     1      36.293  60.054 -12.741  0.00  0.00    +0.000 A 
ATOM     24  C   UNL     1      35.079  60.735 -12.604  0.00  0.00    +0.000 A 
BRANCH  12  13
ATOM     13  C   UNL     1      37.385  58.572 -11.193  0.00  0.00    +0.000 C 
ATOM     14  C   UNL     1      37.479  57.301 -10.794  0.00  0.00    +0.000 C 
BRANCH  14  15
ATOM     15  C   UNL     1      38.367  56.648 -11.719  0.00  0.00    +0.000 A 
ATOM     16  C   UNL     1      39.557  57.045 -12.210  0.00  0.00    +0.000 A 
ATOM     17  C   UNL     1      40.480  56.123 -12.690  0.00  0.00    +0.000 A 
ATOM     18  O   UNL     1      41.802  56.526 -12.752  0.00  0.00    +0.000 OA
ATOM     19  C   UNL     1      40.071  54.809 -12.802  0.00  0.00    +0.000 A 
ATOM     20  C   UNL     1      38.766  54.419 -12.578  0.00  0.00    +0.000 A 
ATOM     21  O   UNL     1      38.221  53.238 -13.067  0.00  0.00    +0.000 OA
ATOM     22  C   UNL     1      37.947  55.351 -12.006  0.00  0.00    +0.000 A 
ENDBRANCH  14  15
ENDBRANCH  12  13
ENDBRANCH   8   9
ENDBRANCH   7   8
TORSDOF 8
ENDMDL
