MODEL 1
REMARK VINA RESULT:      -8.4      0.000      0.000
REMARK  Name = 
REMARK  8 active torsions:
REMARK  status: ('A' for Active; 'I' for Inactive)
REMARK    1  A    between atoms: C_2  and  O_3
REMARK    2  A    between atoms: C_2  and  C_31
REMARK    3  A    between atoms: O_3  and  C_4
REMARK    4  A    between atoms: C_4  and  C_5
REMARK    5  A    between atoms: C_7  and  O_8
REMARK    6  A    between atoms: O_8  and  C_9
REMARK    7  A    between atoms: C_12  and  C_13
REMARK    8  A    between atoms: C_14  and  C_15
REMARK                            x       y       z     vdW  Elec       q    Type
REMARK                         _______ _______ _______ _____ _____    ______ ____
ROOT
ATOM      5  C   UNL     1      14.430  63.885 -14.873  0.00  0.00    +0.000 C 
ATOM      6  O   UNL     1      15.653  63.083 -14.464  0.00  0.00    +0.000 OA
ATOM      7  C   UNL     1      14.970  62.008 -15.351  0.00  0.00    +0.000 C 
ATOM     25  C   UNL     1      14.721  60.957 -13.973  0.00  0.00    +0.000 C 
ATOM     26  O   UNL     1      16.153  61.032 -13.474  0.00  0.00    +0.000 OA
ATOM     27  C   UNL     1      14.151  62.104 -12.807  0.00  0.00    +0.000 C 
ATOM     28  O   UNL     1      15.386  62.982 -12.657  0.00  0.00    +0.000 OA
ATOM     29  C   UNL     1      13.235  63.184 -13.810  0.00  0.00    +0.000 C 
ATOM     30  O   UNL     1      12.768  62.113 -14.789  0.00  0.00    +0.000 OA
ENDROOT
BRANCH   5   4
ATOM      4  C   UNL     1      14.780  65.110 -13.781  0.00  0.00    +0.000 C 
BRANCH   4   3
ATOM      3  O   UNL     1      16.002  65.629 -14.236  0.00  0.00    +0.000 OA
BRANCH   3   2
ATOM      1  O   UNL     1      16.008  67.681 -14.259  0.00  0.00    +0.000 OA
ATOM      2  C   UNL     1      16.318  66.916 -13.779  0.00  0.00    +0.000 C 
BRANCH   2  31
ATOM     31  C   UNL     1      16.970  67.025 -12.468  0.00  0.00    +0.000 A 
ATOM     32  C   UNL     1      17.209  65.883 -11.712  0.00  0.00    +0.000 A 
ATOM     33  C   UNL     1      17.796  66.096 -10.468  0.00  0.00    +0.000 A 
ATOM     34  O   UNL     1      18.389  65.044  -9.814  0.00  0.00    +0.000 OA
ATOM     35  C   UNL     1      18.075  67.375 -10.007  0.00  0.00    +0.000 A 
ATOM     36  O   UNL     1      19.184  67.675  -9.210  0.00  0.00    +0.000 OA
ATOM     37  C   UNL     1      17.285  68.383 -10.533  0.00  0.00    +0.000 A 
ATOM     38  O   UNL     1      17.325  69.647  -9.973  0.00  0.00    +0.000 OA
ATOM     39  C   UNL     1      16.588  68.123 -11.708  0.00  0.00    +0.000 A 
ENDBRANCH   2  31
ENDBRANCH   3   2
ENDBRANCH   4   3
ENDBRANCH   5   4
BRANCH   7   8
ATOM      8  O   UNL     1      16.357  61.386 -15.736  0.00  0.00    +0.000 OA
BRANCH   8   9
ATOM      9  C   UNL     1      16.838  61.108 -16.893  0.00  0.00    +0.000 A 
ATOM     10  C   UNL     1      17.946  60.264 -16.683  0.00  0.00    +0.000 A 
ATOM     11  C   UNL     1      18.183  59.166 -17.506  0.00  0.00    +0.000 A 
ATOM     12  C   UNL     1      17.450  58.991 -18.678  0.00  0.00    +0.000 A 
ATOM     23  C   UNL     1      16.838  60.157 -19.102  0.00  0.00    +0.000 A 
ATOM     24  C   UNL     1      16.595  61.219 -18.223  0.00  0.00    +0.000 A 
BRANCH  12  13
ATOM     13  C   UNL     1      16.907  57.634 -18.833  0.00  0.00    +0.000 C 
ATOM     14  C   UNL     1      16.147  57.100 -17.871  0.00  0.00    +0.000 C 
BRANCH  14  15
ATOM     15  C   UNL     1      15.002  57.984 -17.590  0.00  0.00    +0.000 A 
ATOM     16  C   UNL     1      14.076  57.999 -18.630  0.00  0.00    +0.000 A 
ATOM     17  C   UNL     1      12.850  58.581 -18.556  0.00  0.00    +0.000 A 
ATOM     18  O   UNL     1      12.060  58.538 -19.707  0.00  0.00    +0.000 OA
ATOM     19  C   UNL     1      12.308  58.702 -17.284  0.00  0.00    +0.000 A 
ATOM     20  C   UNL     1      13.116  58.482 -16.173  0.00  0.00    +0.000 A 
ATOM     21  O   UNL     1      12.543  58.368 -14.922  0.00  0.00    +0.000 OA
ATOM     22  C   UNL     1      14.435  58.073 -16.323  0.00  0.00    +0.000 A 
ENDBRANCH  14  15
ENDBRANCH  12  13
ENDBRANCH   8   9
ENDBRANCH   7   8
TORSDOF 8
ENDMDL
MODEL 2
REMARK VINA RESULT:      -7.8     23.102     28.461
REMARK  Name = 
REMARK  8 active torsions:
REMARK  status: ('A' for Active; 'I' for Inactive)
REMARK    1  A    between atoms: C_2  and  O_3
REMARK    2  A    between atoms: C_2  and  C_31
REMARK    3  A    between atoms: O_3  and  C_4
REMARK    4  A    between atoms: C_4  and  C_5
REMARK    5  A    between atoms: C_7  and  O_8
REMARK    6  A    between atoms: O_8  and  C_9
REMARK    7  A    between atoms: C_12  and  C_13
REMARK    8  A    between atoms: C_14  and  C_15
REMARK                            x       y       z     vdW  Elec       q    Type
REMARK                         _______ _______ _______ _____ _____    ______ ____
ROOT
ATOM      5  C   UNL     1      20.205  65.317  13.531  0.00  0.00    +0.000 C 
ATOM      6  O   UNL     1      19.033  65.866  14.328  0.00  0.00    +0.000 OA
ATOM      7  C   UNL     1      19.281  67.099  13.419  0.00  0.00    +0.000 C 
ATOM     25  C   UNL     1      19.736  68.085  14.794  0.00  0.00    +0.000 C 
ATOM     26  O   UNL     1      18.523  67.729  15.633  0.00  0.00    +0.000 OA
ATOM     27  C   UNL     1      20.767  66.978  15.639  0.00  0.00    +0.000 C 
ATOM     28  O   UNL     1      19.765  65.892  16.005  0.00  0.00    +0.000 OA
ATOM     29  C   UNL     1      21.525  66.143  14.321  0.00  0.00    +0.000 C 
ATOM     30  O   UNL     1      21.543  67.341  13.379  0.00  0.00    +0.000 OA
ENDROOT
BRANCH   5   4
ATOM      4  C   UNL     1      20.352  63.980  14.535  0.00  0.00    +0.000 C 
BRANCH   4   3
ATOM      3  O   UNL     1      19.634  62.976  13.867  0.00  0.00    +0.000 OA
BRANCH   3   2
ATOM      1  O   UNL     1      20.004  60.958  13.932  0.00  0.00    +0.000 OA
ATOM      2  C   UNL     1      19.698  61.701  14.448  0.00  0.00    +0.000 C 
BRANCH   2  31
ATOM     31  C   UNL     1      19.457  61.605  15.893  0.00  0.00    +0.000 A 
ATOM     32  C   UNL     1      20.297  60.836  16.690  0.00  0.00    +0.000 A 
ATOM     33  C   UNL     1      19.961  60.779  18.040  0.00  0.00    +0.000 A 
ATOM     34  O   UNL     1      20.900  60.359  18.950  0.00  0.00    +0.000 OA
ATOM     35  C   UNL     1      18.831  61.415  18.533  0.00  0.00    +0.000 A 
ATOM     36  O   UNL     1      18.771  61.987  19.807  0.00  0.00    +0.000 OA
ATOM     37  C   UNL     1      17.810  61.611  17.617  0.00  0.00    +0.000 A 
ATOM     38  O   UNL     1      16.565  62.021  18.058  0.00  0.00    +0.000 OA
ATOM     39  C   UNL     1      18.121  61.533  16.264  0.00  0.00    +0.000 A 
ENDBRANCH   2  31
ENDBRANCH   3   2
ENDBRANCH   4   3
ENDBRANCH   5   4
BRANCH   7   8
ATOM      8  O   UNL     1      17.765  67.496  13.475  0.00  0.00    +0.000 OA
BRANCH   8   9
ATOM      9  C   UNL     1      16.875  67.471  12.551  0.00  0.00    +0.000 A 
ATOM     10  C   UNL     1      17.302  68.365  11.549  0.00  0.00    +0.000 A 
ATOM     11  C   UNL     1      17.173  68.050  10.198  0.00  0.00    +0.000 A 
ATOM     12  C   UNL     1      16.436  66.936   9.801  0.00  0.00    +0.000 A 
ATOM     23  C   UNL     1      15.571  66.492  10.784  0.00  0.00    +0.000 A 
ATOM     24  C   UNL     1      15.766  66.813  12.133  0.00  0.00    +0.000 A 
BRANCH  12  13
ATOM     13  C   UNL     1      17.139  66.085   8.830  0.00  0.00    +0.000 C 
ATOM     14  C   UNL     1      16.465  65.508   7.829  0.00  0.00    +0.000 C 
BRANCH  14  15
ATOM     15  C   UNL     1      15.750  66.535   7.052  0.00  0.00    +0.000 A 
ATOM     16  C   UNL     1      16.587  67.210   6.167  0.00  0.00    +0.000 A 
ATOM     17  C   UNL     1      16.154  68.072   5.208  0.00  0.00    +0.000 A 
ATOM     18  O   UNL     1      17.133  68.695   4.431  0.00  0.00    +0.000 OA
ATOM     19  C   UNL     1      14.854  67.882   4.760  0.00  0.00    +0.000 A 
ATOM     20  C   UNL     1      14.004  67.037   5.466  0.00  0.00    +0.000 A 
ATOM     21  O   UNL     1      12.799  66.657   4.908  0.00  0.00    +0.000 OA
ATOM     22  C   UNL     1      14.462  66.326   6.568  0.00  0.00    +0.000 A 
ENDBRANCH  14  15
ENDBRANCH  12  13
ENDBRANCH   8   9
ENDBRANCH   7   8
TORSDOF 8
ENDMDL
MODEL 3
REMARK VINA RESULT:      -7.8      3.168      5.192
REMARK  Name = 
REMARK  8 active torsions:
REMARK  status: ('A' for Active; 'I' for Inactive)
REMARK    1  A    between atoms: C_2  and  O_3
REMARK    2  A    between atoms: C_2  and  C_31
REMARK    3  A    between atoms: O_3  and  C_4
REMARK    4  A    between atoms: C_4  and  C_5
REMARK    5  A    between atoms: C_7  and  O_8
REMARK    6  A    between atoms: O_8  and  C_9
REMARK    7  A    between atoms: C_12  and  C_13
REMARK    8  A    between atoms: C_14  and  C_15
REMARK                            x       y       z     vdW  Elec       q    Type
REMARK                         _______ _______ _______ _____ _____    ______ ____
ROOT
ATOM      5  C   UNL     1      15.225  64.538 -14.543  0.00  0.00    +0.000 C 
ATOM      6  O   UNL     1      16.102  63.547 -13.798  0.00  0.00    +0.000 OA
ATOM      7  C   UNL     1      15.302  62.532 -14.658  0.00  0.00    +0.000 C 
ATOM     25  C   UNL     1      14.558  61.834 -13.234  0.00  0.00    +0.000 C 
ATOM     26  O   UNL     1      15.857  61.644 -12.473  0.00  0.00    +0.000 OA
ATOM     27  C   UNL     1      14.145  63.274 -12.364  0.00  0.00    +0.000 C 
ATOM     28  O   UNL     1      15.532  63.834 -12.083  0.00  0.00    +0.000 OA
ATOM     29  C   UNL     1      13.731  64.350 -13.660  0.00  0.00    +0.000 C 
ATOM     30  O   UNL     1      13.151  63.271 -14.567  0.00  0.00    +0.000 OA
ENDROOT
BRANCH   5   4
ATOM      4  C   UNL     1      15.718  65.814 -13.569  0.00  0.00    +0.000 C 
BRANCH   4   3
ATOM      3  O   UNL     1      15.888  66.878 -14.468  0.00  0.00    +0.000 OA
BRANCH   3   2
ATOM      1  O   UNL     1      15.243  68.563 -13.489  0.00  0.00    +0.000 OA
ATOM      2  C   UNL     1      15.074  67.996 -14.239  0.00  0.00    +0.000 C 
BRANCH   2  31
ATOM     31  C   UNL     1      14.096  68.343 -15.278  0.00  0.00    +0.000 A 
ATOM     32  C   UNL     1      13.068  69.236 -14.997  0.00  0.00    +0.000 A 
ATOM     33  C   UNL     1      12.172  69.469 -16.037  0.00  0.00    +0.000 A 
ATOM     34  O   UNL     1      11.357  70.573 -15.987  0.00  0.00    +0.000 OA
ATOM     35  C   UNL     1      12.284  68.809 -17.252  0.00  0.00    +0.000 A 
ATOM     36  O   UNL     1      11.952  69.399 -18.475  0.00  0.00    +0.000 OA
ATOM     37  C   UNL     1      12.919  67.579 -17.206  0.00  0.00    +0.000 A 
ATOM     38  O   UNL     1      12.877  66.745 -18.309  0.00  0.00    +0.000 OA
ATOM     39  C   UNL     1      13.709  67.291 -16.098  0.00  0.00    +0.000 A 
ENDBRANCH   2  31
ENDBRANCH   3   2
ENDBRANCH   4   3
ENDBRANCH   5   4
BRANCH   7   8
ATOM      8  O   UNL     1      16.508  61.531 -14.675  0.00  0.00    +0.000 OA
BRANCH   8   9
ATOM      9  C   UNL     1      16.888  60.720 -15.593  0.00  0.00    +0.000 A 
ATOM     10  C   UNL     1      15.783  59.902 -15.899  0.00  0.00    +0.000 A 
ATOM     11  C   UNL     1      15.480  59.561 -17.215  0.00  0.00    +0.000 A 
ATOM     12  C   UNL     1      16.376  59.848 -18.243  0.00  0.00    +0.000 A 
ATOM     23  C   UNL     1      17.658  60.083 -17.781  0.00  0.00    +0.000 A 
ATOM     24  C   UNL     1      17.903  60.455 -16.453  0.00  0.00    +0.000 A 
BRANCH  12  13
ATOM     13  C   UNL     1      15.749  60.503 -19.400  0.00  0.00    +0.000 C 
ATOM     14  C   UNL     1      16.287  60.376 -20.618  0.00  0.00    +0.000 C 
BRANCH  14  15
ATOM     15  C   UNL     1      16.419  58.948 -20.959  0.00  0.00    +0.000 A 
ATOM     16  C   UNL     1      15.341  58.479 -21.706  0.00  0.00    +0.000 A 
ATOM     17  C   UNL     1      15.296  57.259 -22.304  0.00  0.00    +0.000 A 
ATOM     18  O   UNL     1      14.120  56.932 -22.983  0.00  0.00    +0.000 OA
ATOM     19  C   UNL     1      16.522  56.687 -22.616  0.00  0.00    +0.000 A 
ATOM     20  C   UNL     1      17.686  57.235 -22.087  0.00  0.00    +0.000 A 
ATOM     21  O   UNL     1      18.914  56.829 -22.571  0.00  0.00    +0.000 OA
ATOM     22  C   UNL     1      17.642  58.386 -21.312  0.00  0.00    +0.000 A 
ENDBRANCH  14  15
ENDBRANCH  12  13
ENDBRANCH   8   9
ENDBRANCH   7   8
TORSDOF 8
ENDMDL
MODEL 4
REMARK VINA RESULT:      -7.4     40.653     43.373
REMARK  Name = 
REMARK  8 active torsions:
REMARK  status: ('A' for Active; 'I' for Inactive)
REMARK    1  A    between atoms: C_2  and  O_3
REMARK    2  A    between atoms: C_2  and  C_31
REMARK    3  A    between atoms: O_3  and  C_4
REMARK    4  A    between atoms: C_4  and  C_5
REMARK    5  A    between atoms: C_7  and  O_8
REMARK    6  A    between atoms: O_8  and  C_9
REMARK    7  A    between atoms: C_12  and  C_13
REMARK    8  A    between atoms: C_14  and  C_15
REMARK                            x       y       z     vdW  Elec       q    Type
REMARK                         _______ _______ _______ _____ _____    ______ ____
ROOT
ATOM      5  C   UNL     1      25.119  36.014  20.145  0.00  0.00    +0.000 C 
ATOM      6  O   UNL     1      23.880  36.808  20.520  0.00  0.00    +0.000 OA
ATOM      7  C   UNL     1      24.855  37.411  21.567  0.00  0.00    +0.000 C 
ATOM     25  C   UNL     1      23.932  36.732  22.892  0.00  0.00    +0.000 C 
ATOM     26  O   UNL     1      22.589  37.250  22.411  0.00  0.00    +0.000 OA
ATOM     27  C   UNL     1      23.645  35.136  22.284  0.00  0.00    +0.000 C 
ATOM     28  O   UNL     1      22.781  35.453  21.072  0.00  0.00    +0.000 OA
ATOM     29  C   UNL     1      25.121  34.827  21.426  0.00  0.00    +0.000 C 
ATOM     30  O   UNL     1      26.011  35.624  22.373  0.00  0.00    +0.000 OA
ENDROOT
BRANCH   5   4
ATOM      4  C   UNL     1      24.250  35.006  19.122  0.00  0.00    +0.000 C 
BRANCH   4   3
ATOM      3  O   UNL     1      24.985  35.025  17.926  0.00  0.00    +0.000 OA
BRANCH   3   2
ATOM      1  O   UNL     1      23.554  34.974  16.456  0.00  0.00    +0.000 OA
ATOM      2  C   UNL     1      24.318  34.518  16.801  0.00  0.00    +0.000 C 
BRANCH   2  31
ATOM     31  C   UNL     1      24.945  33.393  16.096  0.00  0.00    +0.000 A 
ATOM     32  C   UNL     1      25.423  33.563  14.802  0.00  0.00    +0.000 A 
ATOM     33  C   UNL     1      25.964  32.426  14.206  0.00  0.00    +0.000 A 
ATOM     34  O   UNL     1      26.769  32.564  13.102  0.00  0.00    +0.000 OA
ATOM     35  C   UNL     1      25.974  31.201  14.857  0.00  0.00    +0.000 A 
ATOM     36  O   UNL     1      27.002  30.266  14.710  0.00  0.00    +0.000 OA
ATOM     37  C   UNL     1      24.986  31.026  15.812  0.00  0.00    +0.000 A 
ATOM     38  O   UNL     1      24.767  29.770  16.348  0.00  0.00    +0.000 OA
ATOM     39  C   UNL     1      24.348  32.157  16.310  0.00  0.00    +0.000 A 
ENDBRANCH   2  31
ENDBRANCH   3   2
ENDBRANCH   4   3
ENDBRANCH   5   4
BRANCH   7   8
ATOM      8  O   UNL     1      24.083  38.776  21.561  0.00  0.00    +0.000 OA
BRANCH   8   9
ATOM      9  C   UNL     1      24.521  39.964  21.352  0.00  0.00    +0.000 A 
ATOM     10  C   UNL     1      25.284  39.917  20.170  0.00  0.00    +0.000 A 
ATOM     11  C   UNL     1      25.207  40.932  19.220  0.00  0.00    +0.000 A 
ATOM     12  C   UNL     1      24.530  42.116  19.506  0.00  0.00    +0.000 A 
ATOM     23  C   UNL     1      24.352  42.313  20.864  0.00  0.00    +0.000 A 
ATOM     24  C   UNL     1      24.409  41.249  21.772  0.00  0.00    +0.000 A 
BRANCH  12  13
ATOM     13  C   UNL     1      23.591  42.524  18.451  0.00  0.00    +0.000 C 
ATOM     14  C   UNL     1      23.415  43.820  18.171  0.00  0.00    +0.000 C 
BRANCH  14  15
ATOM     15  C   UNL     1      24.712  44.441  17.847  0.00  0.00    +0.000 A 
ATOM     16  C   UNL     1      24.786  44.853  16.519  0.00  0.00    +0.000 A 
ATOM     17  C   UNL     1      25.790  45.614  16.007  0.00  0.00    +0.000 A 
ATOM     18  O   UNL     1      25.730  45.903  14.642  0.00  0.00    +0.000 OA
ATOM     19  C   UNL     1      26.466  46.421  16.912  0.00  0.00    +0.000 A 
ATOM     20  C   UNL     1      26.276  46.225  18.276  0.00  0.00    +0.000 A 
ATOM     21  O   UNL     1      26.751  47.161  19.174  0.00  0.00    +0.000 OA
ATOM     22  C   UNL     1      25.367  45.283  18.740  0.00  0.00    +0.000 A 
ENDBRANCH  14  15
ENDBRANCH  12  13
ENDBRANCH   8   9
ENDBRANCH   7   8
TORSDOF 8
ENDMDL
MODEL 5
REMARK VINA RESULT:      -7.4     24.056     30.157
REMARK  Name = 
REMARK  8 active torsions:
REMARK  status: ('A' for Active; 'I' for Inactive)
REMARK    1  A    between atoms: C_2  and  O_3
REMARK    2  A    between atoms: C_2  and  C_31
REMARK    3  A    between atoms: O_3  and  C_4
REMARK    4  A    between atoms: C_4  and  C_5
REMARK    5  A    between atoms: C_7  and  O_8
REMARK    6  A    between atoms: O_8  and  C_9
REMARK    7  A    between atoms: C_12  and  C_13
REMARK    8  A    between atoms: C_14  and  C_15
REMARK                            x       y       z     vdW  Elec       q    Type
REMARK                         _______ _______ _______ _____ _____    ______ ____
ROOT
ATOM      5  C   UNL     1      24.029  69.481  16.243  0.00  0.00    +0.000 C 
ATOM      6  O   UNL     1      22.787  70.268  15.863  0.00  0.00    +0.000 OA
ATOM      7  C   UNL     1      23.610  70.514  14.570  0.00  0.00    +0.000 C 
ATOM     25  C   UNL     1      23.711  72.231  14.900  0.00  0.00    +0.000 C 
ATOM     26  O   UNL     1      22.225  72.416  15.151  0.00  0.00    +0.000 OA
ATOM     27  C   UNL     1      24.091  72.199  16.590  0.00  0.00    +0.000 C 
ATOM     28  O   UNL     1      22.822  71.570  17.147  0.00  0.00    +0.000 OA
ATOM     29  C   UNL     1      25.096  70.789  16.688  0.00  0.00    +0.000 C 
ATOM     30  O   UNL     1      25.718  70.956  15.306  0.00  0.00    +0.000 OA
ENDROOT
BRANCH   5   4
ATOM      4  C   UNL     1      23.504  69.282  17.826  0.00  0.00    +0.000 C 
BRANCH   4   3
ATOM      3  O   UNL     1      23.179  67.919  17.904  0.00  0.00    +0.000 OA
BRANCH   3   2
ATOM      1  O   UNL     1      21.369  67.997  18.871  0.00  0.00    +0.000 OA
ATOM      2  C   UNL     1      21.821  67.636  18.111  0.00  0.00    +0.000 C 
BRANCH   2  31
ATOM     31  C   UNL     1      21.108  66.932  17.037  0.00  0.00    +0.000 A 
ATOM     32  C   UNL     1      21.770  65.978  16.271  0.00  0.00    +0.000 A 
ATOM     33  C   UNL     1      21.018  65.397  15.254  0.00  0.00    +0.000 A 
ATOM     34  O   UNL     1      21.447  64.220  14.689  0.00  0.00    +0.000 OA
ATOM     35  C   UNL     1      19.711  65.788  15.004  0.00  0.00    +0.000 A 
ATOM     36  O   UNL     1      18.720  64.905  14.562  0.00  0.00    +0.000 OA
ATOM     37  C   UNL     1      19.391  67.079  15.390  0.00  0.00    +0.000 A 
ATOM     38  O   UNL     1      18.195  67.640  14.979  0.00  0.00    +0.000 OA
ATOM     39  C   UNL     1      20.222  67.713  16.307  0.00  0.00    +0.000 A 
ENDBRANCH   2  31
ENDBRANCH   3   2
ENDBRANCH   4   3
ENDBRANCH   5   4
BRANCH   7   8
ATOM      8  O   UNL     1      22.304  70.626  13.710  0.00  0.00    +0.000 OA
BRANCH   8   9
ATOM      9  C   UNL     1      21.485  69.711  13.340  0.00  0.00    +0.000 A 
ATOM     10  C   UNL     1      20.187  70.205  13.573  0.00  0.00    +0.000 A 
ATOM     11  C   UNL     1      19.160  69.998  12.655  0.00  0.00    +0.000 A 
ATOM     12  C   UNL     1      19.337  69.125  11.584  0.00  0.00    +0.000 A 
ATOM     23  C   UNL     1      20.386  68.245  11.782  0.00  0.00    +0.000 A 
ATOM     24  C   UNL     1      21.410  68.520  12.696  0.00  0.00    +0.000 A 
BRANCH  12  13
ATOM     13  C   UNL     1      18.927  69.693  10.291  0.00  0.00    +0.000 C 
ATOM     14  C   UNL     1      18.957  68.940   9.186  0.00  0.00    +0.000 C 
BRANCH  14  15
ATOM     15  C   UNL     1      18.152  67.723   9.388  0.00  0.00    +0.000 A 
ATOM     16  C   UNL     1      16.795  68.003   9.533  0.00  0.00    +0.000 A 
ATOM     17  C   UNL     1      15.816  67.060   9.548  0.00  0.00    +0.000 A 
ATOM     18  O   UNL     1      14.508  67.511   9.743  0.00  0.00    +0.000 OA
ATOM     19  C   UNL     1      16.105  65.870   8.895  0.00  0.00    +0.000 A 
ATOM     20  C   UNL     1      17.414  65.603   8.509  0.00  0.00    +0.000 A 
ATOM     21  O   UNL     1      17.675  64.545   7.660  0.00  0.00    +0.000 OA
ATOM     22  C   UNL     1      18.418  66.543   8.702  0.00  0.00    +0.000 A 
ENDBRANCH  14  15
ENDBRANCH  12  13
ENDBRANCH   8   9
ENDBRANCH   7   8
TORSDOF 8
ENDMDL
MODEL 6
REMARK VINA RESULT:      -7.4     26.747     30.650
REMARK  Name = 
REMARK  8 active torsions:
REMARK  status: ('A' for Active; 'I' for Inactive)
REMARK    1  A    between atoms: C_2  and  O_3
REMARK    2  A    between atoms: C_2  and  C_31
REMARK    3  A    between atoms: O_3  and  C_4
REMARK    4  A    between atoms: C_4  and  C_5
REMARK    5  A    between atoms: C_7  and  O_8
REMARK    6  A    between atoms: O_8  and  C_9
REMARK    7  A    between atoms: C_12  and  C_13
REMARK    8  A    between atoms: C_14  and  C_15
REMARK                            x       y       z     vdW  Elec       q    Type
REMARK                         _______ _______ _______ _____ _____    ______ ____
ROOT
ATOM      5  C   UNL     1      21.588  62.802  14.320  0.00  0.00    +0.000 C 
ATOM      6  O   UNL     1      22.686  63.824  14.081  0.00  0.00    +0.000 OA
ATOM      7  C   UNL     1      21.557  64.518  13.273  0.00  0.00    +0.000 C 
ATOM     25  C   UNL     1      22.432  64.304  11.771  0.00  0.00    +0.000 C 
ATOM     26  O   UNL     1      23.742  64.871  12.286  0.00  0.00    +0.000 OA
ATOM     27  C   UNL     1      22.959  62.664  11.951  0.00  0.00    +0.000 C 
ATOM     28  O   UNL     1      23.884  62.801  13.151  0.00  0.00    +0.000 OA
ATOM     29  C   UNL     1      21.613  61.962  12.790  0.00  0.00    +0.000 C 
ATOM     30  O   UNL     1      20.554  62.831  12.121  0.00  0.00    +0.000 OA
ENDROOT
BRANCH   5   4
ATOM      4  C   UNL     1      22.658  61.709  15.013  0.00  0.00    +0.000 C 
BRANCH   4   3
ATOM      3  O   UNL     1      22.245  61.636  16.352  0.00  0.00    +0.000 OA
BRANCH   3   2
ATOM      1  O   UNL     1      21.911  59.640  16.700  0.00  0.00    +0.000 OA
ATOM      2  C   UNL     1      21.495  60.500  16.689  0.00  0.00    +0.000 C 
BRANCH   2  31
ATOM     31  C   UNL     1      20.131  60.716  17.187  0.00  0.00    +0.000 A 
ATOM     32  C   UNL     1      19.190  61.356  16.387  0.00  0.00    +0.000 A 
ATOM     33  C   UNL     1      17.938  61.548  16.966  0.00  0.00    +0.000 A 
ATOM     34  O   UNL     1      16.862  61.833  16.161  0.00  0.00    +0.000 OA
ATOM     35  C   UNL     1      17.676  61.162  18.272  0.00  0.00    +0.000 A 
ATOM     36  O   UNL     1      16.433  60.680  18.692  0.00  0.00    +0.000 OA
ATOM     37  C   UNL     1      18.778  61.112  19.111  0.00  0.00    +0.000 A 
ATOM     38  O   UNL     1      18.594  60.966  20.474  0.00  0.00    +0.000 OA
ATOM     39  C   UNL     1      20.040  61.057  18.531  0.00  0.00    +0.000 A 
ENDBRANCH   2  31
ENDBRANCH   3   2
ENDBRANCH   4   3
ENDBRANCH   5   4
BRANCH   7   8
ATOM      8  O   UNL     1      22.159  65.935  13.570  0.00  0.00    +0.000 OA
BRANCH   8   9
ATOM      9  C   UNL     1      21.765  66.838  14.392  0.00  0.00    +0.000 A 
ATOM     10  C   UNL     1      22.516  67.997  14.117  0.00  0.00    +0.000 A 
ATOM     11  C   UNL     1      21.923  69.257  14.116  0.00  0.00    +0.000 A 
ATOM     12  C   UNL     1      20.622  69.426  14.585  0.00  0.00    +0.000 A 
ATOM     23  C   UNL     1      20.204  68.376  15.382  0.00  0.00    +0.000 A 
ATOM     24  C   UNL     1      20.816  67.118  15.319  0.00  0.00    +0.000 A 
BRANCH  12  13
ATOM     13  C   UNL     1      19.768  70.205  13.677  0.00  0.00    +0.000 C 
ATOM     14  C   UNL     1      19.547  69.778  12.429  0.00  0.00    +0.000 C 
BRANCH  14  15
ATOM     15  C   UNL     1      18.996  68.411  12.460  0.00  0.00    +0.000 A 
ATOM     16  C   UNL     1      17.611  68.401  12.609  0.00  0.00    +0.000 A 
ATOM     17  C   UNL     1      16.835  67.292  12.485  0.00  0.00    +0.000 A 
ATOM     18  O   UNL     1      15.465  67.451  12.706  0.00  0.00    +0.000 OA
ATOM     19  C   UNL     1      17.350  66.273  11.695  0.00  0.00    +0.000 A 
ATOM     20  C   UNL     1      18.684  66.318  11.306  0.00  0.00    +0.000 A 
ATOM     21  O   UNL     1      19.144  65.447  10.338  0.00  0.00    +0.000 OA
ATOM     22  C   UNL     1      19.486  67.402  11.637  0.00  0.00    +0.000 A 
ENDBRANCH  14  15
ENDBRANCH  12  13
ENDBRANCH   8   9
ENDBRANCH   7   8
TORSDOF 8
ENDMDL
MODEL 7
REMARK VINA RESULT:      -7.3     26.928     31.571
REMARK  Name = 
REMARK  8 active torsions:
REMARK  status: ('A' for Active; 'I' for Inactive)
REMARK    1  A    between atoms: C_2  and  O_3
REMARK    2  A    between atoms: C_2  and  C_31
REMARK    3  A    between atoms: O_3  and  C_4
REMARK    4  A    between atoms: C_4  and  C_5
REMARK    5  A    between atoms: C_7  and  O_8
REMARK    6  A    between atoms: O_8  and  C_9
REMARK    7  A    between atoms: C_12  and  C_13
REMARK    8  A    between atoms: C_14  and  C_15
REMARK                            x       y       z     vdW  Elec       q    Type
REMARK                         _______ _______ _______ _____ _____    ______ ____
ROOT
ATOM      5  C   UNL     1      20.728  68.452  17.071  0.00  0.00    +0.000 C 
ATOM      6  O   UNL     1      21.708  67.528  16.367  0.00  0.00    +0.000 OA
ATOM      7  C   UNL     1      21.459  66.665  17.633  0.00  0.00    +0.000 C 
ATOM     25  C   UNL     1      23.124  66.847  18.146  0.00  0.00    +0.000 C 
ATOM     26  O   UNL     1      23.728  66.454  16.810  0.00  0.00    +0.000 OA
ATOM     27  C   UNL     1      23.352  68.540  17.861  0.00  0.00    +0.000 C 
ATOM     28  O   UNL     1      23.198  68.589  16.348  0.00  0.00    +0.000 OA
ATOM     29  C   UNL     1      21.785  69.168  18.262  0.00  0.00    +0.000 C 
ATOM     30  O   UNL     1      21.494  68.149  19.358  0.00  0.00    +0.000 OA
ENDROOT
BRANCH   5   4
ATOM      4  C   UNL     1      21.007  69.696  15.978  0.00  0.00    +0.000 C 
BRANCH   4   3
ATOM      3  O   UNL     1      19.785  69.831  15.302  0.00  0.00    +0.000 OA
BRANCH   3   2
ATOM      1  O   UNL     1      20.617  70.419  13.520  0.00  0.00    +0.000 OA
ATOM      2  C   UNL     1      19.878  69.955  13.908  0.00  0.00    +0.000 C 
BRANCH   2  31
ATOM     31  C   UNL     1      18.912  69.203  13.098  0.00  0.00    +0.000 A 
ATOM     32  C   UNL     1      18.827  67.820  13.221  0.00  0.00    +0.000 A 
ATOM     33  C   UNL     1      17.908  67.197  12.381  0.00  0.00    +0.000 A 
ATOM     34  O   UNL     1      17.497  65.918  12.667  0.00  0.00    +0.000 OA
ATOM     35  C   UNL     1      17.168  67.916  11.455  0.00  0.00    +0.000 A 
ATOM     36  O   UNL     1      15.856  67.585  11.103  0.00  0.00    +0.000 OA
ATOM     37  C   UNL     1      17.743  69.099  11.022  0.00  0.00    +0.000 A 
ATOM     38  O   UNL     1      17.201  69.767   9.939  0.00  0.00    +0.000 OA
ATOM     39  C   UNL     1      18.758  69.654  11.793  0.00  0.00    +0.000 A 
ENDBRANCH   2  31
ENDBRANCH   3   2
ENDBRANCH   4   3
ENDBRANCH   5   4
BRANCH   7   8
ATOM      8  O   UNL     1      21.717  65.342  16.832  0.00  0.00    +0.000 OA
BRANCH   8   9
ATOM      9  C   UNL     1      21.023  64.800  15.898  0.00  0.00    +0.000 A 
ATOM     10  C   UNL     1      21.927  64.117  15.061  0.00  0.00    +0.000 A 
ATOM     11  C   UNL     1      21.624  62.858  14.549  0.00  0.00    +0.000 A 
ATOM     12  C   UNL     1      20.340  62.332  14.681  0.00  0.00    +0.000 A 
ATOM     23  C   UNL     1      19.394  63.301  14.959  0.00  0.00    +0.000 A 
ATOM     24  C   UNL     1      19.751  64.540  15.505  0.00  0.00    +0.000 A 
BRANCH  12  13
ATOM     13  C   UNL     1      20.323  60.949  15.181  0.00  0.00    +0.000 C 
ATOM     14  C   UNL     1      20.645  60.689  16.453  0.00  0.00    +0.000 C 
BRANCH  14  15
ATOM     15  C   UNL     1      19.787  61.477  17.356  0.00  0.00    +0.000 A 
ATOM     16  C   UNL     1      18.579  60.841  17.627  0.00  0.00    +0.000 A 
ATOM     17  C   UNL     1      17.688  61.257  18.567  0.00  0.00    +0.000 A 
ATOM     18  O   UNL     1      16.504  60.525  18.682  0.00  0.00    +0.000 OA
ATOM     19  C   UNL     1      18.211  62.000  19.616  0.00  0.00    +0.000 A 
ATOM     20  C   UNL     1      19.509  62.491  19.525  0.00  0.00    +0.000 A 
ATOM     21  O   UNL     1      20.119  63.024  20.644  0.00  0.00    +0.000 OA
ATOM     22  C   UNL     1      20.310  62.187  18.432  0.00  0.00    +0.000 A 
ENDBRANCH  14  15
ENDBRANCH  12  13
ENDBRANCH   8   9
ENDBRANCH   7   8
TORSDOF 8
ENDMDL
MODEL 8
REMARK VINA RESULT:      -7.3     17.849     21.602
REMARK  Name = 
REMARK  8 active torsions:
REMARK  status: ('A' for Active; 'I' for Inactive)
REMARK    1  A    between atoms: C_2  and  O_3
REMARK    2  A    between atoms: C_2  and  C_31
REMARK    3  A    between atoms: O_3  and  C_4
REMARK    4  A    between atoms: C_4  and  C_5
REMARK    5  A    between atoms: C_7  and  O_8
REMARK    6  A    between atoms: O_8  and  C_9
REMARK    7  A    between atoms: C_12  and  C_13
REMARK    8  A    between atoms: C_14  and  C_15
REMARK                            x       y       z     vdW  Elec       q    Type
REMARK                         _______ _______ _______ _____ _____    ______ ____
ROOT
ATOM      5  C   UNL     1       5.029  46.848 -13.896  0.00  0.00    +0.000 C 
ATOM      6  O   UNL     1       6.523  47.103 -13.784  0.00  0.00    +0.000 OA
ATOM      7  C   UNL     1       6.415  45.957 -12.743  0.00  0.00    +0.000 C 
ATOM     25  C   UNL     1       6.872  47.031 -11.438  0.00  0.00    +0.000 C 
ATOM     26  O   UNL     1       8.097  47.591 -12.136  0.00  0.00    +0.000 OA
ATOM     27  C   UNL     1       5.901  48.414 -11.821  0.00  0.00    +0.000 C 
ATOM     28  O   UNL     1       6.513  48.820 -13.153  0.00  0.00    +0.000 OA
ATOM     29  C   UNL     1       4.472  47.662 -12.455  0.00  0.00    +0.000 C 
ATOM     30  O   UNL     1       4.537  46.436 -11.551  0.00  0.00    +0.000 OA
ENDROOT
BRANCH   5   4
ATOM      4  C   UNL     1       4.795  48.216 -14.840  0.00  0.00    +0.000 C 
BRANCH   4   3
ATOM      3  O   UNL     1       5.484  47.928 -16.028  0.00  0.00    +0.000 OA
BRANCH   3   2
ATOM      1  O   UNL     1       3.911  47.746 -17.335  0.00  0.00    +0.000 OA
ATOM      2  C   UNL     1       4.717  47.328 -17.038  0.00  0.00    +0.000 C 
BRANCH   2  31
ATOM     31  C   UNL     1       5.294  46.164 -17.721  0.00  0.00    +0.000 A 
ATOM     32  C   UNL     1       4.505  45.050 -17.986  0.00  0.00    +0.000 A 
ATOM     33  C   UNL     1       5.156  43.984 -18.602  0.00  0.00    +0.000 A 
ATOM     34  O   UNL     1       4.411  43.007 -19.218  0.00  0.00    +0.000 OA
ATOM     35  C   UNL     1       6.513  44.028 -18.884  0.00  0.00    +0.000 A 
ATOM     36  O   UNL     1       7.080  43.422 -20.009  0.00  0.00    +0.000 OA
ATOM     37  C   UNL     1       7.263  44.865 -18.074  0.00  0.00    +0.000 A 
ATOM     38  O   UNL     1       8.644  44.805 -18.120  0.00  0.00    +0.000 OA
ATOM     39  C   UNL     1       6.595  45.847 -17.351  0.00  0.00    +0.000 A 
ENDBRANCH   2  31
ENDBRANCH   3   2
ENDBRANCH   4   3
ENDBRANCH   5   4
BRANCH   7   8
ATOM      8  O   UNL     1       7.881  45.490 -13.043  0.00  0.00    +0.000 OA
BRANCH   8   9
ATOM      9  C   UNL     1       8.305  44.386 -13.541  0.00  0.00    +0.000 A 
ATOM     10  C   UNL     1       7.590  43.351 -12.909  0.00  0.00    +0.000 A 
ATOM     11  C   UNL     1       7.121  42.254 -13.627  0.00  0.00    +0.000 A 
ATOM     12  C   UNL     1       7.523  42.051 -14.946  0.00  0.00    +0.000 A 
ATOM     23  C   UNL     1       8.671  42.752 -15.267  0.00  0.00    +0.000 A 
ATOM     24  C   UNL     1       9.078  43.869 -14.528  0.00  0.00    +0.000 A 
BRANCH  12  13
ATOM     13  C   UNL     1       6.407  41.768 -15.861  0.00  0.00    +0.000 C 
ATOM     14  C   UNL     1       6.586  40.962 -16.912  0.00  0.00    +0.000 C 
BRANCH  14  15
ATOM     15  C   UNL     1       7.103  39.658 -16.459  0.00  0.00    +0.000 A 
ATOM     16  C   UNL     1       6.126  38.891 -15.829  0.00  0.00    +0.000 A 
ATOM     17  C   UNL     1       6.283  37.586 -15.481  0.00  0.00    +0.000 A 
ATOM     18  O   UNL     1       5.216  36.977 -14.818  0.00  0.00    +0.000 OA
ATOM     19  C   UNL     1       7.212  36.866 -16.220  0.00  0.00    +0.000 A 
ATOM     20  C   UNL     1       8.091  37.542 -17.059  0.00  0.00    +0.000 A 
ATOM     21  O   UNL     1       8.852  36.833 -17.967  0.00  0.00    +0.000 OA
ATOM     22  C   UNL     1       8.002  38.918 -17.221  0.00  0.00    +0.000 A 
ENDBRANCH  14  15
ENDBRANCH  12  13
ENDBRANCH   8   9
ENDBRANCH   7   8
TORSDOF 8
ENDMDL
MODEL 9
REMARK VINA RESULT:      -7.2     17.836     22.743
REMARK  Name = 
REMARK  8 active torsions:
REMARK  status: ('A' for Active; 'I' for Inactive)
REMARK    1  A    between atoms: C_2  and  O_3
REMARK    2  A    between atoms: C_2  and  C_31
REMARK    3  A    between atoms: O_3  and  C_4
REMARK    4  A    between atoms: C_4  and  C_5
REMARK    5  A    between atoms: C_7  and  O_8
REMARK    6  A    between atoms: O_8  and  C_9
REMARK    7  A    between atoms: C_12  and  C_13
REMARK    8  A    between atoms: C_14  and  C_15
REMARK                            x       y       z     vdW  Elec       q    Type
REMARK                         _______ _______ _______ _____ _____    ______ ____
ROOT
ATOM      5  C   UNL     1       5.132  46.045 -12.932  0.00  0.00    +0.000 C 
ATOM      6  O   UNL     1       6.305  46.360 -13.845  0.00  0.00    +0.000 OA
ATOM      7  C   UNL     1       7.110  45.969 -12.576  0.00  0.00    +0.000 C 
ATOM     25  C   UNL     1       7.740  47.595 -12.413  0.00  0.00    +0.000 C 
ATOM     26  O   UNL     1       8.202  47.715 -13.854  0.00  0.00    +0.000 OA
ATOM     27  C   UNL     1       6.299  48.515 -12.697  0.00  0.00    +0.000 C 
ATOM     28  O   UNL     1       6.014  48.142 -14.144  0.00  0.00    +0.000 OA
ATOM     29  C   UNL     1       5.097  47.500 -11.967  0.00  0.00    +0.000 C 
ATOM     30  O   UNL     1       6.002  46.972 -10.860  0.00  0.00    +0.000 OA
ENDROOT
BRANCH   5   4
ATOM      4  C   UNL     1       4.022  46.666 -14.028  0.00  0.00    +0.000 C 
BRANCH   4   3
ATOM      3  O   UNL     1       3.101  45.621 -14.202  0.00  0.00    +0.000 OA
BRANCH   3   2
ATOM      1  O   UNL     1       1.570  46.156 -12.943  0.00  0.00    +0.000 OA
ATOM      2  C   UNL     1       2.178  45.452 -13.159  0.00  0.00    +0.000 C 
BRANCH   2  31
ATOM     31  C   UNL     1       2.074  44.115 -12.561  0.00  0.00    +0.000 A 
ATOM     32  C   UNL     1       2.516  43.898 -11.261  0.00  0.00    +0.000 A 
ATOM     33  C   UNL     1       2.410  42.588 -10.800  0.00  0.00    +0.000 A 
ATOM     34  O   UNL     1       2.477  42.343  -9.450  0.00  0.00    +0.000 OA
ATOM     35  C   UNL     1       1.936  41.570 -11.613  0.00  0.00    +0.000 A 
ATOM     36  O   UNL     1       1.180  40.497 -11.131  0.00  0.00    +0.000 OA
ATOM     37  C   UNL     1       2.103  41.767 -12.974  0.00  0.00    +0.000 A 
ATOM     38  O   UNL     1       1.879  40.720 -13.849  0.00  0.00    +0.000 OA
ATOM     39  C   UNL     1       2.345  43.060 -13.423  0.00  0.00    +0.000 A 
ENDBRANCH   2  31
ENDBRANCH   3   2
ENDBRANCH   4   3
ENDBRANCH   5   4
BRANCH   7   8
ATOM      8  O   UNL     1       8.309  45.455 -13.446  0.00  0.00    +0.000 OA
BRANCH   8   9
ATOM      9  C   UNL     1       8.606  44.261 -13.809  0.00  0.00    +0.000 A 
ATOM     10  C   UNL     1       7.827  43.389 -13.023  0.00  0.00    +0.000 A 
ATOM     11  C   UNL     1       7.227  42.260 -13.577  0.00  0.00    +0.000 A 
ATOM     12  C   UNL     1       7.548  41.853 -14.870  0.00  0.00    +0.000 A 
ATOM     23  C   UNL     1       8.740  42.393 -15.318  0.00  0.00    +0.000 A 
ATOM     24  C   UNL     1       9.282  43.550 -14.745  0.00  0.00    +0.000 A 
BRANCH  12  13
ATOM     13  C   UNL     1       6.371  41.568 -15.703  0.00  0.00    +0.000 C 
ATOM     14  C   UNL     1       6.484  40.787 -16.783  0.00  0.00    +0.000 C 
BRANCH  14  15
ATOM     15  C   UNL     1       7.058  39.485 -16.399  0.00  0.00    +0.000 A 
ATOM     16  C   UNL     1       6.121  38.650 -15.794  0.00  0.00    +0.000 A 
ATOM     17  C   UNL     1       6.334  37.337 -15.512  0.00  0.00    +0.000 A 
ATOM     18  O   UNL     1       5.302  36.655 -14.866  0.00  0.00    +0.000 OA
ATOM     19  C   UNL     1       7.280  36.691 -16.296  0.00  0.00    +0.000 A 
ATOM     20  C   UNL     1       8.119  37.441 -17.113  0.00  0.00    +0.000 A 
ATOM     21  O   UNL     1       8.895  36.807 -18.064  0.00  0.00    +0.000 OA
ATOM     22  C   UNL     1       7.974  38.819 -17.208  0.00  0.00    +0.000 A 
ENDBRANCH  14  15
ENDBRANCH  12  13
ENDBRANCH   8   9
ENDBRANCH   7   8
TORSDOF 8
ENDMDL
MODEL 10
REMARK VINA RESULT:      -7.2     15.464     18.220
REMARK  Name = 
REMARK  8 active torsions:
REMARK  status: ('A' for Active; 'I' for Inactive)
REMARK    1  A    between atoms: C_2  and  O_3
REMARK    2  A    between atoms: C_2  and  C_31
REMARK    3  A    between atoms: O_3  and  C_4
REMARK    4  A    between atoms: C_4  and  C_5
REMARK    5  A    between atoms: C_7  and  O_8
REMARK    6  A    between atoms: O_8  and  C_9
REMARK    7  A    between atoms: C_12  and  C_13
REMARK    8  A    between atoms: C_14  and  C_15
REMARK                            x       y       z     vdW  Elec       q    Type
REMARK                         _______ _______ _______ _____ _____    ______ ____
ROOT
ATOM      5  C   UNL     1      24.415  57.001  -1.524  0.00  0.00    +0.000 C 
ATOM      6  O   UNL     1      23.538  56.151  -2.427  0.00  0.00    +0.000 OA
ATOM      7  C   UNL     1      24.320  56.913  -3.530  0.00  0.00    +0.000 C 
ATOM     25  C   UNL     1      22.862  57.710  -4.085  0.00  0.00    +0.000 C 
ATOM     26  O   UNL     1      22.036  56.441  -4.187  0.00  0.00    +0.000 OA
ATOM     27  C   UNL     1      22.161  58.162  -2.567  0.00  0.00    +0.000 C 
ATOM     28  O   UNL     1      21.885  56.790  -1.970  0.00  0.00    +0.000 OA
ATOM     29  C   UNL     1      23.576  58.529  -1.632  0.00  0.00    +0.000 C 
ATOM     30  O   UNL     1      24.389  59.068  -2.803  0.00  0.00    +0.000 OA
ENDROOT
BRANCH   5   4
ATOM      4  C   UNL     1      23.558  56.552  -0.152  0.00  0.00    +0.000 C 
BRANCH   4   3
ATOM      3  O   UNL     1      24.356  55.557   0.433  0.00  0.00    +0.000 OA
BRANCH   3   2
ATOM      1  O   UNL     1      24.054  56.265   2.336  0.00  0.00    +0.000 OA
ATOM      2  C   UNL     1      24.313  55.495   1.833  0.00  0.00    +0.000 C 
BRANCH   2  31
ATOM     31  C   UNL     1      24.499  54.179   2.457  0.00  0.00    +0.000 A 
ATOM     32  C   UNL     1      24.011  53.940   3.737  0.00  0.00    +0.000 A 
ATOM     33  C   UNL     1      24.273  52.673   4.253  0.00  0.00    +0.000 A 
ATOM     34  O   UNL     1      23.546  52.222   5.328  0.00  0.00    +0.000 OA
ATOM     35  C   UNL     1      25.015  51.740   3.545  0.00  0.00    +0.000 A 
ATOM     36  O   UNL     1      24.770  50.365   3.603  0.00  0.00    +0.000 OA
ATOM     37  C   UNL     1      25.909  52.264   2.625  0.00  0.00    +0.000 A 
ATOM     38  O   UNL     1      26.852  51.438   2.040  0.00  0.00    +0.000 OA
ATOM     39  C   UNL     1      25.727  53.578   2.210  0.00  0.00    +0.000 A 
ENDBRANCH   2  31
ENDBRANCH   3   2
ENDBRANCH   4   3
ENDBRANCH   5   4
BRANCH   7   8
ATOM      8  O   UNL     1      24.187  55.703  -4.519  0.00  0.00    +0.000 OA
BRANCH   8   9
ATOM      9  C   UNL     1      25.013  54.753  -4.768  0.00  0.00    +0.000 A 
ATOM     10  C   UNL     1      24.687  54.252  -6.043  0.00  0.00    +0.000 A 
ATOM     11  C   UNL     1      25.678  53.912  -6.960  0.00  0.00    +0.000 A 
ATOM     12  C   UNL     1      27.015  53.865  -6.569  0.00  0.00    +0.000 A 
ATOM     23  C   UNL     1      27.165  53.769  -5.197  0.00  0.00    +0.000 A 
ATOM     24  C   UNL     1      26.145  54.157  -4.320  0.00  0.00    +0.000 A 
BRANCH  12  13
ATOM     13  C   UNL     1      27.918  54.580  -7.482  0.00  0.00    +0.000 C 
ATOM     14  C   UNL     1      27.568  55.772  -7.977  0.00  0.00    +0.000 C 
BRANCH  14  15
ATOM     15  C   UNL     1      27.261  56.699  -6.874  0.00  0.00    +0.000 A 
ATOM     16  C   UNL     1      28.408  57.250  -6.308  0.00  0.00    +0.000 A 
ATOM     17  C   UNL     1      28.405  58.266  -5.404  0.00  0.00    +0.000 A 
ATOM     18  O   UNL     1      29.645  58.671  -4.906  0.00  0.00    +0.000 OA
ATOM     19  C   UNL     1      27.302  59.108  -5.437  0.00  0.00    +0.000 A 
ATOM     20  C   UNL     1      26.181  58.737  -6.171  0.00  0.00    +0.000 A 
ATOM     21  O   UNL     1      25.179  59.660  -6.404  0.00  0.00    +0.000 OA
ATOM     22  C   UNL     1      26.178  57.572  -6.927  0.00  0.00    +0.000 A 
ENDBRANCH  14  15
ENDBRANCH  12  13
ENDBRANCH   8   9
ENDBRANCH   7   8
TORSDOF 8
ENDMDL
