MODEL 1
REMARK VINA RESULT:      -7.0      0.000      0.000
REMARK  Name = 
REMARK  5 active torsions:
REMARK  status: ('A' for Active; 'I' for Inactive)
REMARK    1  A    between atoms: C_2  and  C_3
REMARK    2  A    between atoms: C_5  and  O_6
REMARK    3  A    between atoms: O_6  and  C_7
REMARK    4  A    between atoms: C_10  and  C_11
REMARK    5  A    between atoms: C_12  and  C_13
REMARK                            x       y       z     vdW  Elec       q    Type
REMARK                         _______ _______ _______ _____ _____    ______ ____
ROOT
ATOM      7  C   UNL     1      25.857  55.570  -7.195  0.00  0.00    +0.000 A 
ATOM      8  C   UNL     1      27.045  55.311  -6.525  0.00  0.00    +0.000 A 
ATOM      9  C   UNL     1      28.262  55.695  -7.085  0.00  0.00    +0.000 A 
ATOM     10  C   UNL     1      28.286  56.540  -8.145  0.00  0.00    +0.000 A 
ATOM     21  C   UNL     1      27.063  57.088  -8.530  0.00  0.00    +0.000 A 
ATOM     22  C   UNL     1      25.892  56.376  -8.325  0.00  0.00    +0.000 A 
ENDROOT
BRANCH  10  11
ATOM     11  C   UNL     1      29.370  56.819  -9.053  0.00  0.00    +0.000 C 
ATOM     12  C   UNL     1      30.458  57.198  -8.361  0.00  0.00    +0.000 C 
BRANCH  12  13
ATOM     13  C   UNL     1      30.274  58.631  -8.071  0.00  0.00    +0.000 A 
ATOM     14  C   UNL     1      30.614  59.229  -6.892  0.00  0.00    +0.000 A 
ATOM     15  C   UNL     1      30.539  60.617  -6.856  0.00  0.00    +0.000 A 
ATOM     16  O   UNL     1      30.314  61.315  -5.670  0.00  0.00    +0.000 OA
ATOM     17  C   UNL     1      30.676  61.329  -8.019  0.00  0.00    +0.000 A 
ATOM     18  C   UNL     1      30.709  60.716  -9.262  0.00  0.00    +0.000 A 
ATOM     19  O   UNL     1      31.330  61.313 -10.365  0.00  0.00    +0.000 OA
ATOM     20  C   UNL     1      30.356  59.374  -9.245  0.00  0.00    +0.000 A 
ENDBRANCH  12  13
ENDBRANCH  10  11
BRANCH   7   6
ATOM      6  O   UNL     1      24.596  55.430  -6.627  0.00  0.00    +0.000 OA
BRANCH   6   5
ATOM      3  C   UNL     1      23.626  58.572  -5.342  0.00  0.00    +0.000 C 
ATOM      4  O   UNL     1      23.415  57.305  -6.189  0.00  0.00    +0.000 OA
ATOM      5  C   UNL     1      24.390  56.391  -5.388  0.00  0.00    +0.000 C 
ATOM     23  C   UNL     1      23.062  55.416  -4.757  0.00  0.00    +0.000 C 
ATOM     24  O   UNL     1      23.745  55.338  -3.417  0.00  0.00    +0.000 OA
ATOM     25  C   UNL     1      22.098  56.812  -4.391  0.00  0.00    +0.000 C 
ATOM     26  O   UNL     1      21.746  56.385  -2.980  0.00  0.00    +0.000 OA
ATOM     27  C   UNL     1      23.472  57.702  -3.828  0.00  0.00    +0.000 C 
ATOM     28  O   UNL     1      22.596  58.743  -3.176  0.00  0.00    +0.000 OA
BRANCH   3   2
ATOM      1  O   UNL     1      21.814  59.162  -5.895  0.00  0.00    +0.000 OA
ATOM      2  C   UNL     1      22.010  58.978  -5.429  0.00  0.00    +0.000 C 
ENDBRANCH   3   2
ENDBRANCH   6   5
ENDBRANCH   7   6
TORSDOF 5
ENDMDL
MODEL 2
REMARK VINA RESULT:      -6.9     24.297     29.987
REMARK  Name = 
REMARK  5 active torsions:
REMARK  status: ('A' for Active; 'I' for Inactive)
REMARK    1  A    between atoms: C_2  and  C_3
REMARK    2  A    between atoms: C_5  and  O_6
REMARK    3  A    between atoms: O_6  and  C_7
REMARK    4  A    between atoms: C_10  and  C_11
REMARK    5  A    between atoms: C_12  and  C_13
REMARK                            x       y       z     vdW  Elec       q    Type
REMARK                         _______ _______ _______ _____ _____    ______ ____
ROOT
ATOM      7  C   UNL     1       3.210  60.958   8.922  0.00  0.00    +0.000 A 
ATOM      8  C   UNL     1       1.982  60.540   8.429  0.00  0.00    +0.000 A 
ATOM      9  C   UNL     1       0.814  60.813   9.138  0.00  0.00    +0.000 A 
ATOM     10  C   UNL     1       0.834  61.696  10.166  0.00  0.00    +0.000 A 
ATOM     21  C   UNL     1       2.026  62.392  10.364  0.00  0.00    +0.000 A 
ATOM     22  C   UNL     1       3.234  61.805  10.021  0.00  0.00    +0.000 A 
ENDROOT
BRANCH  10  11
ATOM     11  C   UNL     1      -0.145  61.894  11.206  0.00  0.00    +0.000 C 
ATOM     12  C   UNL     1       0.458  61.883  12.407  0.00  0.00    +0.000 C 
BRANCH  12  13
ATOM     13  C   UNL     1       0.617  60.463  12.766  0.00  0.00    +0.000 A 
ATOM     14  C   UNL     1       1.686  59.955  13.446  0.00  0.00    +0.000 A 
ATOM     15  C   UNL     1       1.588  58.630  13.857  0.00  0.00    +0.000 A 
ATOM     16  O   UNL     1       2.713  57.829  14.047  0.00  0.00    +0.000 OA
ATOM     17  C   UNL     1       0.350  58.083  14.073  0.00  0.00    +0.000 A 
ATOM     18  C   UNL     1      -0.821  58.740  13.726  0.00  0.00    +0.000 A 
ATOM     19  O   UNL     1      -2.038  58.467  14.360  0.00  0.00    +0.000 OA
ATOM     20  C   UNL     1      -0.629  59.868  12.940  0.00  0.00    +0.000 A 
ENDBRANCH  12  13
ENDBRANCH  10  11
BRANCH   7   6
ATOM      6  O   UNL     1       4.393  60.931   8.190  0.00  0.00    +0.000 OA
BRANCH   6   5
ATOM      3  C   UNL     1       5.416  57.818   9.504  0.00  0.00    +0.000 C 
ATOM      4  O   UNL     1       4.819  58.724   8.413  0.00  0.00    +0.000 OA
ATOM      5  C   UNL     1       5.502  60.043   8.883  0.00  0.00    +0.000 C 
ATOM     23  C   UNL     1       6.538  60.091   7.455  0.00  0.00    +0.000 C 
ATOM     24  O   UNL     1       7.693  60.564   8.298  0.00  0.00    +0.000 OA
ATOM     25  C   UNL     1       6.913  58.400   7.564  0.00  0.00    +0.000 C 
ATOM     26  O   UNL     1       8.411  58.569   7.414  0.00  0.00    +0.000 OA
ATOM     27  C   UNL     1       7.032  58.465   9.290  0.00  0.00    +0.000 C 
ATOM     28  O   UNL     1       7.712  57.119   9.346  0.00  0.00    +0.000 OA
BRANCH   3   2
ATOM      1  O   UNL     1       5.247  56.186   8.387  0.00  0.00    +0.000 OA
ATOM      2  C   UNL     1       5.633  56.559   8.430  0.00  0.00    +0.000 C 
ENDBRANCH   3   2
ENDBRANCH   6   5
ENDBRANCH   7   6
TORSDOF 5
ENDMDL
MODEL 3
REMARK VINA RESULT:      -6.6     22.122     24.791
REMARK  Name = 
REMARK  5 active torsions:
REMARK  status: ('A' for Active; 'I' for Inactive)
REMARK    1  A    between atoms: C_2  and  C_3
REMARK    2  A    between atoms: C_5  and  O_6
REMARK    3  A    between atoms: O_6  and  C_7
REMARK    4  A    between atoms: C_10  and  C_11
REMARK    5  A    between atoms: C_12  and  C_13
REMARK                            x       y       z     vdW  Elec       q    Type
REMARK                         _______ _______ _______ _____ _____    ______ ____
ROOT
ATOM      7  C   UNL     1      31.258  79.532 -12.102  0.00  0.00    +0.000 A 
ATOM      8  C   UNL     1      30.194  78.889 -12.720  0.00  0.00    +0.000 A 
ATOM      9  C   UNL     1      28.891  79.109 -12.276  0.00  0.00    +0.000 A 
ATOM     10  C   UNL     1      28.627  80.130 -11.425  0.00  0.00    +0.000 A 
ATOM     21  C   UNL     1      29.683  80.997 -11.147  0.00  0.00    +0.000 A 
ATOM     22  C   UNL     1      30.987  80.528 -11.174  0.00  0.00    +0.000 A 
ENDROOT
BRANCH  10  11
ATOM     11  C   UNL     1      27.453  80.351 -10.616  0.00  0.00    +0.000 C 
ATOM     12  C   UNL     1      26.352  80.023 -11.314  0.00  0.00    +0.000 C 
BRANCH  12  13
ATOM     13  C   UNL     1      26.044  81.191 -12.158  0.00  0.00    +0.000 A 
ATOM     14  C   UNL     1      26.432  82.469 -11.876  0.00  0.00    +0.000 A 
ATOM     15  C   UNL     1      26.212  83.417 -12.869  0.00  0.00    +0.000 A 
ATOM     16  O   UNL     1      26.032  84.768 -12.576  0.00  0.00    +0.000 OA
ATOM     17  C   UNL     1      26.158  83.019 -14.180  0.00  0.00    +0.000 A 
ATOM     18  C   UNL     1      26.134  81.681 -14.547  0.00  0.00    +0.000 A 
ATOM     19  O   UNL     1      26.576  81.251 -15.802  0.00  0.00    +0.000 OA
ATOM     20  C   UNL     1      25.931  80.805 -13.490  0.00  0.00    +0.000 A 
ENDBRANCH  12  13
ENDBRANCH  10  11
BRANCH   7   6
ATOM      6  O   UNL     1      32.554  79.552 -12.606  0.00  0.00    +0.000 OA
BRANCH   6   5
ATOM      3  C   UNL     1      34.723  78.103 -10.227  0.00  0.00    +0.000 C 
ATOM      4  O   UNL     1      34.134  78.258 -11.639  0.00  0.00    +0.000 OA
ATOM      5  C   UNL     1      33.634  79.724 -11.464  0.00  0.00    +0.000 C 
ATOM     23  C   UNL     1      34.841  80.339 -12.595  0.00  0.00    +0.000 C 
ATOM     24  O   UNL     1      35.060  81.544 -11.718  0.00  0.00    +0.000 OA
ATOM     25  C   UNL     1      36.107  79.376 -11.902  0.00  0.00    +0.000 C 
ATOM     26  O   UNL     1      37.109  80.506 -11.787  0.00  0.00    +0.000 OA
ATOM     27  C   UNL     1      35.536  79.655 -10.292  0.00  0.00    +0.000 C 
ATOM     28  O   UNL     1      36.823  79.146  -9.691  0.00  0.00    +0.000 OA
BRANCH   3   2
ATOM      1  O   UNL     1      35.984  76.710 -10.866  0.00  0.00    +0.000 OA
ATOM      2  C   UNL     1      36.033  77.242 -10.798  0.00  0.00    +0.000 C 
ENDBRANCH   3   2
ENDBRANCH   6   5
ENDBRANCH   7   6
TORSDOF 5
ENDMDL
MODEL 4
REMARK VINA RESULT:      -6.6     14.328     18.092
REMARK  Name = 
REMARK  5 active torsions:
REMARK  status: ('A' for Active; 'I' for Inactive)
REMARK    1  A    between atoms: C_2  and  C_3
REMARK    2  A    between atoms: C_5  and  O_6
REMARK    3  A    between atoms: O_6  and  C_7
REMARK    4  A    between atoms: C_10  and  C_11
REMARK    5  A    between atoms: C_12  and  C_13
REMARK                            x       y       z     vdW  Elec       q    Type
REMARK                         _______ _______ _______ _____ _____    ______ ____
ROOT
ATOM      7  C   UNL     1      13.032  59.328 -16.412  0.00  0.00    +0.000 A 
ATOM      8  C   UNL     1      13.267  58.174 -15.677  0.00  0.00    +0.000 A 
ATOM      9  C   UNL     1      12.299  57.174 -15.618  0.00  0.00    +0.000 A 
ATOM     10  C   UNL     1      11.244  57.197 -16.469  0.00  0.00    +0.000 A 
ATOM     21  C   UNL     1      11.270  58.175 -17.463  0.00  0.00    +0.000 A 
ATOM     22  C   UNL     1      11.911  59.381 -17.229  0.00  0.00    +0.000 A 
ENDROOT
BRANCH  10  11
ATOM     11  C   UNL     1      10.002  56.469 -16.388  0.00  0.00    +0.000 C 
ATOM     12  C   UNL     1       9.046  57.258 -15.870  0.00  0.00    +0.000 C 
BRANCH  12  13
ATOM     13  C   UNL     1       9.224  57.204 -14.408  0.00  0.00    +0.000 A 
ATOM     14  C   UNL     1       9.599  56.087 -13.718  0.00  0.00    +0.000 A 
ATOM     15  C   UNL     1       9.894  56.261 -12.371  0.00  0.00    +0.000 A 
ATOM     16  O   UNL     1       9.754  55.228 -11.443  0.00  0.00    +0.000 OA
ATOM     17  C   UNL     1      10.325  57.484 -11.928  0.00  0.00    +0.000 A 
ATOM     18  C   UNL     1      10.310  58.611 -12.736  0.00  0.00    +0.000 A 
ATOM     19  O   UNL     1      11.168  59.693 -12.513  0.00  0.00    +0.000 OA
ATOM     20  C   UNL     1       9.612  58.450 -13.925  0.00  0.00    +0.000 A 
ENDBRANCH  12  13
ENDBRANCH  10  11
BRANCH   7   6
ATOM      6  O   UNL     1      14.008  60.273 -16.712  0.00  0.00    +0.000 OA
BRANCH   6   5
ATOM      3  C   UNL     1      16.541  58.225 -18.076  0.00  0.00    +0.000 C 
ATOM      4  O   UNL     1      15.482  59.339 -18.148  0.00  0.00    +0.000 OA
ATOM      5  C   UNL     1      15.467  59.670 -16.625  0.00  0.00    +0.000 C 
ATOM     23  C   UNL     1      16.215  61.246 -16.894  0.00  0.00    +0.000 C 
ATOM     24  O   UNL     1      17.057  61.066 -15.659  0.00  0.00    +0.000 OA
ATOM     25  C   UNL     1      17.380  60.599 -18.006  0.00  0.00    +0.000 C 
ATOM     26  O   UNL     1      18.582  61.264 -17.366  0.00  0.00    +0.000 OA
ATOM     27  C   UNL     1      17.604  59.172 -17.051  0.00  0.00    +0.000 C 
ATOM     28  O   UNL     1      18.859  58.803 -17.803  0.00  0.00    +0.000 OA
BRANCH   3   2
ATOM      1  O   UNL     1      17.081  58.507 -19.965  0.00  0.00    +0.000 OA
ATOM      2  C   UNL     1      17.252  58.721 -19.501  0.00  0.00    +0.000 C 
ENDBRANCH   3   2
ENDBRANCH   6   5
ENDBRANCH   7   6
TORSDOF 5
ENDMDL
MODEL 5
REMARK VINA RESULT:      -6.5     16.479     19.599
REMARK  Name = 
REMARK  5 active torsions:
REMARK  status: ('A' for Active; 'I' for Inactive)
REMARK    1  A    between atoms: C_2  and  C_3
REMARK    2  A    between atoms: C_5  and  O_6
REMARK    3  A    between atoms: O_6  and  C_7
REMARK    4  A    between atoms: C_10  and  C_11
REMARK    5  A    between atoms: C_12  and  C_13
REMARK                            x       y       z     vdW  Elec       q    Type
REMARK                         _______ _______ _______ _____ _____    ______ ____
ROOT
ATOM      7  C   UNL     1      10.967  58.136   3.878  0.00  0.00    +0.000 A 
ATOM      8  C   UNL     1      11.658  58.886   2.936  0.00  0.00    +0.000 A 
ATOM      9  C   UNL     1      12.191  58.270   1.805  0.00  0.00    +0.000 A 
ATOM     10  C   UNL     1      11.827  57.004   1.486  0.00  0.00    +0.000 A 
ATOM     21  C   UNL     1      10.814  56.435   2.257  0.00  0.00    +0.000 A 
ATOM     22  C   UNL     1      10.658  56.815   3.581  0.00  0.00    +0.000 A 
ENDROOT
BRANCH  10  11
ATOM     11  C   UNL     1      12.462  56.085   0.574  0.00  0.00    +0.000 C 
ATOM     12  C   UNL     1      12.600  56.662  -0.631  0.00  0.00    +0.000 C 
BRANCH  12  13
ATOM     13  C   UNL     1      11.300  56.505  -1.308  0.00  0.00    +0.000 A 
ATOM     14  C   UNL     1      10.858  57.302  -2.323  0.00  0.00    +0.000 A 
ATOM     15  C   UNL     1       9.691  56.901  -2.964  0.00  0.00    +0.000 A 
ATOM     16  O   UNL     1       8.842  57.811  -3.592  0.00  0.00    +0.000 OA
ATOM     17  C   UNL     1       9.351  55.573  -2.973  0.00  0.00    +0.000 A 
ATOM     18  C   UNL     1      10.029  54.630  -2.215  0.00  0.00    +0.000 A 
ATOM     19  O   UNL     1      10.053  53.276  -2.567  0.00  0.00    +0.000 OA
ATOM     20  C   UNL     1      10.906  55.171  -1.284  0.00  0.00    +0.000 A 
ENDBRANCH  12  13
ENDBRANCH  10  11
BRANCH   7   6
ATOM      6  O   UNL     1      10.216  58.684   4.911  0.00  0.00    +0.000 OA
BRANCH   6   5
ATOM      3  C   UNL     1      11.008  56.251   7.345  0.00  0.00    +0.000 C 
ATOM      4  O   UNL     1      11.092  57.655   6.722  0.00  0.00    +0.000 OA
ATOM      5  C   UNL     1       9.741  57.589   5.949  0.00  0.00    +0.000 C 
ATOM     23  C   UNL     1       9.004  58.798   7.002  0.00  0.00    +0.000 C 
ATOM     24  O   UNL     1       7.708  58.031   6.990  0.00  0.00    +0.000 OA
ATOM     25  C   UNL     1       9.641  58.062   8.438  0.00  0.00    +0.000 C 
ATOM     26  O   UNL     1       8.333  58.067   9.202  0.00  0.00    +0.000 OA
ATOM     27  C   UNL     1       9.339  56.465   7.839  0.00  0.00    +0.000 C 
ATOM     28  O   UNL     1       9.537  55.859   9.206  0.00  0.00    +0.000 OA
BRANCH   3   2
ATOM      1  O   UNL     1      12.175  56.731   8.876  0.00  0.00    +0.000 OA
ATOM      2  C   UNL     1      11.646  56.783   8.792  0.00  0.00    +0.000 C 
ENDBRANCH   3   2
ENDBRANCH   6   5
ENDBRANCH   7   6
TORSDOF 5
ENDMDL
MODEL 6
REMARK VINA RESULT:      -6.5     21.979     24.612
REMARK  Name = 
REMARK  5 active torsions:
REMARK  status: ('A' for Active; 'I' for Inactive)
REMARK    1  A    between atoms: C_2  and  C_3
REMARK    2  A    between atoms: C_5  and  O_6
REMARK    3  A    between atoms: O_6  and  C_7
REMARK    4  A    between atoms: C_10  and  C_11
REMARK    5  A    between atoms: C_12  and  C_13
REMARK                            x       y       z     vdW  Elec       q    Type
REMARK                         _______ _______ _______ _____ _____    ______ ____
ROOT
ATOM      7  C   UNL     1      31.225  79.924 -11.485  0.00  0.00    +0.000 A 
ATOM      8  C   UNL     1      30.574  79.137 -12.424  0.00  0.00    +0.000 A 
ATOM      9  C   UNL     1      29.181  79.126 -12.483  0.00  0.00    +0.000 A 
ATOM     10  C   UNL     1      28.466  80.062 -11.812  0.00  0.00    +0.000 A 
ATOM     21  C   UNL     1      29.195  81.080 -11.200  0.00  0.00    +0.000 A 
ATOM     22  C   UNL     1      30.480  80.832 -10.744  0.00  0.00    +0.000 A 
ENDROOT
BRANCH  10  11
ATOM     11  C   UNL     1      27.062  80.060 -11.485  0.00  0.00    +0.000 C 
ATOM     12  C   UNL     1      26.339  79.763 -12.578  0.00  0.00    +0.000 C 
BRANCH  12  13
ATOM     13  C   UNL     1      26.208  81.023 -13.331  0.00  0.00    +0.000 A 
ATOM     14  C   UNL     1      25.976  81.097 -14.674  0.00  0.00    +0.000 A 
ATOM     15  C   UNL     1      25.701  82.360 -15.187  0.00  0.00    +0.000 A 
ATOM     16  O   UNL     1      25.978  82.697 -16.511  0.00  0.00    +0.000 OA
ATOM     17  C   UNL     1      25.151  83.313 -14.370  0.00  0.00    +0.000 A 
ATOM     18  C   UNL     1      25.021  83.129 -13.002  0.00  0.00    +0.000 A 
ATOM     19  O   UNL     1      24.055  83.811 -12.252  0.00  0.00    +0.000 OA
ATOM     20  C   UNL     1      25.700  82.023 -12.509  0.00  0.00    +0.000 A 
ENDBRANCH  12  13
ENDBRANCH  10  11
BRANCH   7   6
ATOM      6  O   UNL     1      32.593  80.173 -11.491  0.00  0.00    +0.000 OA
BRANCH   6   5
ATOM      3  C   UNL     1      35.348  78.195 -12.475  0.00  0.00    +0.000 C 
ATOM      4  O   UNL     1      34.689  79.503 -12.004  0.00  0.00    +0.000 OA
ATOM      5  C   UNL     1      33.441  78.847 -11.342  0.00  0.00    +0.000 C 
ATOM     23  C   UNL     1      33.987  79.288  -9.723  0.00  0.00    +0.000 C 
ATOM     24  O   UNL     1      33.517  77.958  -9.193  0.00  0.00    +0.000 OA
ATOM     25  C   UNL     1      35.618  78.792 -10.044  0.00  0.00    +0.000 C 
ATOM     26  O   UNL     1      35.777  77.973  -8.778  0.00  0.00    +0.000 OA
ATOM     27  C   UNL     1      35.096  77.400 -10.933  0.00  0.00    +0.000 C 
ATOM     28  O   UNL     1      36.473  76.787 -10.884  0.00  0.00    +0.000 OA
BRANCH   3   2
ATOM      1  O   UNL     1      37.162  78.999 -12.474  0.00  0.00    +0.000 OA
ATOM      2  C   UNL     1      36.874  78.750 -12.093  0.00  0.00    +0.000 C 
ENDBRANCH   3   2
ENDBRANCH   6   5
ENDBRANCH   7   6
TORSDOF 5
ENDMDL
MODEL 7
REMARK VINA RESULT:      -6.4     22.583     25.935
REMARK  Name = 
REMARK  5 active torsions:
REMARK  status: ('A' for Active; 'I' for Inactive)
REMARK    1  A    between atoms: C_2  and  C_3
REMARK    2  A    between atoms: C_5  and  O_6
REMARK    3  A    between atoms: O_6  and  C_7
REMARK    4  A    between atoms: C_10  and  C_11
REMARK    5  A    between atoms: C_12  and  C_13
REMARK                            x       y       z     vdW  Elec       q    Type
REMARK                         _______ _______ _______ _____ _____    ______ ____
ROOT
ATOM      7  C   UNL     1       8.422  44.634 -14.523  0.00  0.00    +0.000 A 
ATOM      8  C   UNL     1       9.546  43.860 -14.778  0.00  0.00    +0.000 A 
ATOM      9  C   UNL     1       9.740  43.302 -16.040  0.00  0.00    +0.000 A 
ATOM     10  C   UNL     1       8.984  43.713 -17.088  0.00  0.00    +0.000 A 
ATOM     21  C   UNL     1       8.131  44.791 -16.854  0.00  0.00    +0.000 A 
ATOM     22  C   UNL     1       7.606  44.994 -15.587  0.00  0.00    +0.000 A 
ENDROOT
BRANCH  10  11
ATOM     11  C   UNL     1       8.799  43.080 -18.370  0.00  0.00    +0.000 C 
ATOM     12  C   UNL     1       7.562  42.560 -18.446  0.00  0.00    +0.000 C 
BRANCH  12  13
ATOM     13  C   UNL     1       7.629  41.256 -17.762  0.00  0.00    +0.000 A 
ATOM     14  C   UNL     1       7.090  41.001 -16.535  0.00  0.00    +0.000 A 
ATOM     15  C   UNL     1       7.088  39.673 -16.122  0.00  0.00    +0.000 A 
ATOM     16  O   UNL     1       7.101  39.318 -14.773  0.00  0.00    +0.000 OA
ATOM     17  C   UNL     1       7.087  38.676 -17.062  0.00  0.00    +0.000 A 
ATOM     18  C   UNL     1       7.268  38.932 -18.413  0.00  0.00    +0.000 A 
ATOM     19  O   UNL     1       6.785  38.066 -19.401  0.00  0.00    +0.000 OA
ATOM     20  C   UNL     1       7.682  40.226 -18.697  0.00  0.00    +0.000 A 
ENDBRANCH  12  13
ENDBRANCH  10  11
BRANCH   7   6
ATOM      6  O   UNL     1       8.252  45.408 -13.380  0.00  0.00    +0.000 OA
BRANCH   6   5
ATOM      3  C   UNL     1       4.842  46.310 -13.224  0.00  0.00    +0.000 C 
ATOM      4  O   UNL     1       6.136  45.708 -12.648  0.00  0.00    +0.000 OA
ATOM      5  C   UNL     1       7.121  46.498 -13.561  0.00  0.00    +0.000 C 
ATOM     23  C   UNL     1       7.719  47.452 -12.203  0.00  0.00    +0.000 C 
ATOM     24  O   UNL     1       7.764  48.680 -13.074  0.00  0.00    +0.000 OA
ATOM     25  C   UNL     1       6.122  47.727 -11.582  0.00  0.00    +0.000 C 
ATOM     26  O   UNL     1       6.287  49.222 -11.399  0.00  0.00    +0.000 OA
ATOM     27  C   UNL     1       5.465  47.948 -13.169  0.00  0.00    +0.000 C 
ATOM     28  O   UNL     1       4.195  48.545 -12.618  0.00  0.00    +0.000 OA
BRANCH   3   2
ATOM      1  O   UNL     1       3.767  46.013 -11.582  0.00  0.00    +0.000 OA
ATOM      2  C   UNL     1       4.131  46.387 -11.716  0.00  0.00    +0.000 C 
ENDBRANCH   3   2
ENDBRANCH   6   5
ENDBRANCH   7   6
TORSDOF 5
ENDMDL
MODEL 8
REMARK VINA RESULT:      -6.3     21.909     27.716
REMARK  Name = 
REMARK  5 active torsions:
REMARK  status: ('A' for Active; 'I' for Inactive)
REMARK    1  A    between atoms: C_2  and  C_3
REMARK    2  A    between atoms: C_5  and  O_6
REMARK    3  A    between atoms: O_6  and  C_7
REMARK    4  A    between atoms: C_10  and  C_11
REMARK    5  A    between atoms: C_12  and  C_13
REMARK                            x       y       z     vdW  Elec       q    Type
REMARK                         _______ _______ _______ _____ _____    ______ ____
ROOT
ATOM      7  C   UNL     1       5.580  60.068   7.400  0.00  0.00    +0.000 A 
ATOM      8  C   UNL     1       5.448  60.140   8.780  0.00  0.00    +0.000 A 
ATOM      9  C   UNL     1       4.554  61.044   9.351  0.00  0.00    +0.000 A 
ATOM     10  C   UNL     1       3.633  61.669   8.578  0.00  0.00    +0.000 A 
ATOM     21  C   UNL     1       3.553  61.255   7.249  0.00  0.00    +0.000 A 
ATOM     22  C   UNL     1       4.681  60.769   6.608  0.00  0.00    +0.000 A 
ENDROOT
BRANCH  10  11
ATOM     11  C   UNL     1       2.841  62.835   8.883  0.00  0.00    +0.000 C 
ATOM     12  C   UNL     1       2.813  63.032  10.212  0.00  0.00    +0.000 C 
BRANCH  12  13
ATOM     13  C   UNL     1       1.769  62.132  10.733  0.00  0.00    +0.000 A 
ATOM     14  C   UNL     1       1.926  61.316  11.815  0.00  0.00    +0.000 A 
ATOM     15  C   UNL     1       0.784  60.670  12.276  0.00  0.00    +0.000 A 
ATOM     16  O   UNL     1       0.844  59.455  12.957  0.00  0.00    +0.000 OA
ATOM     17  C   UNL     1      -0.445  61.232  12.047  0.00  0.00    +0.000 A 
ATOM     18  C   UNL     1      -0.614  62.331  11.217  0.00  0.00    +0.000 A 
ATOM     19  O   UNL     1      -1.700  63.202  11.355  0.00  0.00    +0.000 OA
ATOM     20  C   UNL     1       0.508  62.655  10.466  0.00  0.00    +0.000 A 
ENDBRANCH  12  13
ENDBRANCH  10  11
BRANCH   7   6
ATOM      6  O   UNL     1       6.269  59.060   6.735  0.00  0.00    +0.000 OA
BRANCH   6   5
ATOM      3  C   UNL     1       9.114  58.103   8.594  0.00  0.00    +0.000 C 
ATOM      4  O   UNL     1       7.829  57.819   7.798  0.00  0.00    +0.000 OA
ATOM      5  C   UNL     1       7.829  59.143   6.978  0.00  0.00    +0.000 C 
ATOM     23  C   UNL     1       8.185  58.290   5.475  0.00  0.00    +0.000 C 
ATOM     24  O   UNL     1       9.117  59.397   5.058  0.00  0.00    +0.000 OA
ATOM     25  C   UNL     1       9.399  57.301   6.224  0.00  0.00    +0.000 C 
ATOM     26  O   UNL     1      10.455  57.532   5.162  0.00  0.00    +0.000 OA
ATOM     27  C   UNL     1       9.995  58.624   7.170  0.00  0.00    +0.000 C 
ATOM     28  O   UNL     1      11.254  57.872   7.522  0.00  0.00    +0.000 OA
BRANCH   3   2
ATOM      1  O   UNL     1       9.481  56.174   8.883  0.00  0.00    +0.000 OA
ATOM      2  C   UNL     1       9.610  56.514   8.485  0.00  0.00    +0.000 C 
ENDBRANCH   3   2
ENDBRANCH   6   5
ENDBRANCH   7   6
TORSDOF 5
ENDMDL
MODEL 9
REMARK VINA RESULT:      -6.3     21.624     23.191
REMARK  Name = 
REMARK  5 active torsions:
REMARK  status: ('A' for Active; 'I' for Inactive)
REMARK    1  A    between atoms: C_2  and  C_3
REMARK    2  A    between atoms: C_5  and  O_6
REMARK    3  A    between atoms: O_6  and  C_7
REMARK    4  A    between atoms: C_10  and  C_11
REMARK    5  A    between atoms: C_12  and  C_13
REMARK                            x       y       z     vdW  Elec       q    Type
REMARK                         _______ _______ _______ _____ _____    ______ ____
ROOT
ATOM      7  C   UNL     1      30.226  79.683 -11.036  0.00  0.00    +0.000 A 
ATOM      8  C   UNL     1      31.049  80.717 -10.611  0.00  0.00    +0.000 A 
ATOM      9  C   UNL     1      32.359  80.804 -11.080  0.00  0.00    +0.000 A 
ATOM     10  C   UNL     1      32.756  80.049 -12.132  0.00  0.00    +0.000 A 
ATOM     21  C   UNL     1      31.764  79.312 -12.778  0.00  0.00    +0.000 A 
ATOM     22  C   UNL     1      30.664  78.861 -12.066  0.00  0.00    +0.000 A 
ENDROOT
BRANCH  10  11
ATOM     11  C   UNL     1      34.096  79.751 -12.575  0.00  0.00    +0.000 C 
ATOM     12  C   UNL     1      34.380  78.460 -12.332  0.00  0.00    +0.000 C 
BRANCH  12  13
ATOM     13  C   UNL     1      34.785  78.394 -10.917  0.00  0.00    +0.000 A 
ATOM     14  C   UNL     1      34.278  77.509 -10.010  0.00  0.00    +0.000 A 
ATOM     15  C   UNL     1      34.902  77.467  -8.769  0.00  0.00    +0.000 A 
ATOM     16  O   UNL     1      34.227  77.072  -7.614  0.00  0.00    +0.000 OA
ATOM     17  C   UNL     1      36.218  77.835  -8.664  0.00  0.00    +0.000 A 
ATOM     18  C   UNL     1      36.909  78.421  -9.714  0.00  0.00    +0.000 A 
ATOM     19  O   UNL     1      38.301  78.341  -9.820  0.00  0.00    +0.000 OA
ATOM     20  C   UNL     1      36.105  78.814 -10.775  0.00  0.00    +0.000 A 
ENDBRANCH  12  13
ENDBRANCH  10  11
BRANCH   7   6
ATOM      6  O   UNL     1      28.855  79.634 -10.805  0.00  0.00    +0.000 OA
BRANCH   6   5
ATOM      3  C   UNL     1      26.987  80.765 -13.580  0.00  0.00    +0.000 C 
ATOM      4  O   UNL     1      27.293  79.790 -12.430  0.00  0.00    +0.000 OA
ATOM      5  C   UNL     1      28.084  80.799 -11.546  0.00  0.00    +0.000 C 
ATOM     23  C   UNL     1      26.809  80.832 -10.326  0.00  0.00    +0.000 C 
ATOM     24  O   UNL     1      27.005  82.314 -10.148  0.00  0.00    +0.000 OA
ATOM     25  C   UNL     1      25.554  80.955 -11.518  0.00  0.00    +0.000 C 
ATOM     26  O   UNL     1      24.828  82.107 -10.853  0.00  0.00    +0.000 OA
ATOM     27  C   UNL     1      26.486  82.044 -12.490  0.00  0.00    +0.000 C 
ATOM     28  O   UNL     1      25.277  82.433 -13.305  0.00  0.00    +0.000 OA
BRANCH   3   2
ATOM      1  O   UNL     1      25.375  79.749 -14.133  0.00  0.00    +0.000 OA
ATOM      2  C   UNL     1      25.450  80.149 -13.781  0.00  0.00    +0.000 C 
ENDBRANCH   3   2
ENDBRANCH   6   5
ENDBRANCH   7   6
TORSDOF 5
ENDMDL
MODEL 10
REMARK VINA RESULT:      -6.3     20.949     24.126
REMARK  Name = 
REMARK  5 active torsions:
REMARK  status: ('A' for Active; 'I' for Inactive)
REMARK    1  A    between atoms: C_2  and  C_3
REMARK    2  A    between atoms: C_5  and  O_6
REMARK    3  A    between atoms: O_6  and  C_7
REMARK    4  A    between atoms: C_10  and  C_11
REMARK    5  A    between atoms: C_12  and  C_13
REMARK                            x       y       z     vdW  Elec       q    Type
REMARK                         _______ _______ _______ _____ _____    ______ ____
ROOT
ATOM      7  C   UNL     1      19.971  68.484  13.921  0.00  0.00    +0.000 A 
ATOM      8  C   UNL     1      20.048  68.588  15.303  0.00  0.00    +0.000 A 
ATOM      9  C   UNL     1      20.491  69.772  15.892  0.00  0.00    +0.000 A 
ATOM     10  C   UNL     1      20.604  70.899  15.149  0.00  0.00    +0.000 A 
ATOM     21  C   UNL     1      20.128  70.831  13.840  0.00  0.00    +0.000 A 
ATOM     22  C   UNL     1      20.160  69.627  13.155  0.00  0.00    +0.000 A 
ENDROOT
BRANCH  10  11
ATOM     11  C   UNL     1      21.312  72.116  15.457  0.00  0.00    +0.000 C 
ATOM     12  C   UNL     1      22.215  72.374  14.496  0.00  0.00    +0.000 C 
BRANCH  12  13
ATOM     13  C   UNL     1      23.396  71.552  14.818  0.00  0.00    +0.000 A 
ATOM     14  C   UNL     1      24.167  70.914  13.891  0.00  0.00    +0.000 A 
ATOM     15  C   UNL     1      25.342  70.334  14.354  0.00  0.00    +0.000 A 
ATOM     16  O   UNL     1      25.927  69.238  13.720  0.00  0.00    +0.000 OA
ATOM     17  C   UNL     1      25.945  70.840  15.476  0.00  0.00    +0.000 A 
ATOM     18  C   UNL     1      25.338  71.796  16.276  0.00  0.00    +0.000 A 
ATOM     19  O   UNL     1      26.079  72.666  17.083  0.00  0.00    +0.000 OA
ATOM     20  C   UNL     1      23.998  72.013  15.985  0.00  0.00    +0.000 A 
ENDBRANCH  12  13
ENDBRANCH  10  11
BRANCH   7   6
ATOM      6  O   UNL     1      19.339  67.442  13.253  0.00  0.00    +0.000 OA
BRANCH   6   5
ATOM      3  C   UNL     1      18.545  67.549   9.814  0.00  0.00    +0.000 C 
ATOM      4  O   UNL     1      18.879  66.824  11.128  0.00  0.00    +0.000 OA
ATOM      5  C   UNL     1      18.408  67.960  12.084  0.00  0.00    +0.000 C 
ATOM     23  C   UNL     1      17.037  67.004  12.652  0.00  0.00    +0.000 C 
ATOM     24  O   UNL     1      16.169  68.234  12.654  0.00  0.00    +0.000 OA
ATOM     25  C   UNL     1      16.622  66.489  11.047  0.00  0.00    +0.000 C 
ATOM     26  O   UNL     1      15.147  66.816  11.162  0.00  0.00    +0.000 OA
ATOM     27  C   UNL     1      16.963  68.051  10.381  0.00  0.00    +0.000 C 
ATOM     28  O   UNL     1      16.257  67.712   9.092  0.00  0.00    +0.000 OA
BRANCH   3   2
ATOM      1  O   UNL     1      18.343  65.834   8.836  0.00  0.00    +0.000 OA
ATOM      2  C   UNL     1      17.993  66.144   9.103  0.00  0.00    +0.000 C 
ENDBRANCH   3   2
ENDBRANCH   6   5
ENDBRANCH   7   6
TORSDOF 5
ENDMDL
