MODEL 1
REMARK VINA RESULT:      -7.0      0.000      0.000
REMARK  Name = 
REMARK  5 active torsions:
REMARK  status: ('A' for Active; 'I' for Inactive)
REMARK    1  A    between atoms: C_2  and  C_3
REMARK    2  A    between atoms: C_5  and  O_6
REMARK    3  A    between atoms: O_6  and  C_7
REMARK    4  A    between atoms: C_12  and  C_13
REMARK    5  A    between atoms: C_14  and  C_15
REMARK                            x       y       z     vdW  Elec       q    Type
REMARK                         _______ _______ _______ _____ _____    ______ ____
ROOT
ATOM      7  C   UNL     1       4.184  61.191   9.394  0.00  0.00    +0.000 A 
ATOM      8  C   UNL     1       3.736  62.256   8.621  0.00  0.00    +0.000 A 
ATOM      9  C   UNL     1       2.876  63.220   9.131  0.00  0.00    +0.000 A 
ATOM     10  O   UNL     1       3.031  64.569   8.828  0.00  0.00    +0.000 OA
ATOM     11  C   UNL     1       2.250  62.865  10.297  0.00  0.00    +0.000 A 
ATOM     12  C   UNL     1       2.295  61.557  10.778  0.00  0.00    +0.000 A 
ATOM     22  C   UNL     1       3.292  60.724  10.350  0.00  0.00    +0.000 A 
ENDROOT
BRANCH  12  13
ATOM     13  C   UNL     1       1.147  61.160  11.575  0.00  0.00    +0.000 C 
ATOM     14  C   UNL     1       1.043  60.724  12.738  0.00  0.00    +0.000 C 
BRANCH  14  15
ATOM     15  C   UNL     1       1.125  59.509  13.475  0.00  0.00    +0.000 A 
ATOM     16  C   UNL     1       2.121  59.152  14.368  0.00  0.00    +0.000 A 
ATOM     17  C   UNL     1       2.649  57.871  14.299  0.00  0.00    +0.000 A 
ATOM     18  C   UNL     1       2.104  56.896  13.472  0.00  0.00    +0.000 A 
ATOM     19  O   UNL     1       2.894  55.948  12.824  0.00  0.00    +0.000 OA
ATOM     20  C   UNL     1       0.863  57.158  12.899  0.00  0.00    +0.000 A 
ATOM     21  C   UNL     1       0.333  58.425  13.086  0.00  0.00    +0.000 A 
ENDBRANCH  14  15
ENDBRANCH  12  13
BRANCH   7   6
ATOM      6  O   UNL     1       5.336  60.569   9.127  0.00  0.00    +0.000 OA
BRANCH   6   5
ATOM      3  C   UNL     1       5.378  57.454   9.671  0.00  0.00    +0.000 C 
ATOM      4  O   UNL     1       6.157  58.708   9.913  0.00  0.00    +0.000 OA
ATOM      5  C   UNL     1       5.372  59.093   8.666  0.00  0.00    +0.000 C 
ATOM     23  C   UNL     1       6.830  59.271   7.811  0.00  0.00    +0.000 C 
ATOM     24  O   UNL     1       6.239  58.820   6.502  0.00  0.00    +0.000 OA
ATOM     25  C   UNL     1       7.602  57.795   8.119  0.00  0.00    +0.000 C 
ATOM     26  O   UNL     1       8.099  58.138   9.509  0.00  0.00    +0.000 OA
ATOM     27  C   UNL     1       6.397  56.682   8.551  0.00  0.00    +0.000 C 
ATOM     28  O   UNL     1       5.457  56.961   7.402  0.00  0.00    +0.000 OA
BRANCH   3   2
ATOM      1  O   UNL     1       5.906  56.654  11.496  0.00  0.00    +0.000 OA
ATOM      2  C   UNL     1       6.102  56.660  10.920  0.00  0.00    +0.000 C 
ENDBRANCH   3   2
ENDBRANCH   6   5
ENDBRANCH   7   6
TORSDOF 5
ENDMDL
MODEL 2
REMARK VINA RESULT:      -6.9     26.853     30.880
REMARK  Name = 
REMARK  5 active torsions:
REMARK  status: ('A' for Active; 'I' for Inactive)
REMARK    1  A    between atoms: C_2  and  C_3
REMARK    2  A    between atoms: C_5  and  O_6
REMARK    3  A    between atoms: O_6  and  C_7
REMARK    4  A    between atoms: C_12  and  C_13
REMARK    5  A    between atoms: C_14  and  C_15
REMARK                            x       y       z     vdW  Elec       q    Type
REMARK                         _______ _______ _______ _____ _____    ______ ____
ROOT
ATOM      7  C   UNL     1       8.512  45.260 -14.581  0.00  0.00    +0.000 A 
ATOM      8  C   UNL     1       9.052  44.155 -13.934  0.00  0.00    +0.000 A 
ATOM      9  C   UNL     1       9.853  43.236 -14.599  0.00  0.00    +0.000 A 
ATOM     10  O   UNL     1      10.984  42.689 -14.002  0.00  0.00    +0.000 OA
ATOM     11  C   UNL     1       9.786  43.306 -15.965  0.00  0.00    +0.000 A 
ATOM     12  C   UNL     1       8.812  44.069 -16.608  0.00  0.00    +0.000 A 
ATOM     22  C   UNL     1       8.196  45.078 -15.921  0.00  0.00    +0.000 A 
ENDROOT
BRANCH  12  13
ATOM     13  C   UNL     1       8.428  43.586 -17.924  0.00  0.00    +0.000 C 
ATOM     14  C   UNL     1       9.033  43.546 -19.012  0.00  0.00    +0.000 C 
BRANCH  14  15
ATOM     15  C   UNL     1       9.334  44.359 -20.142  0.00  0.00    +0.000 A 
ATOM     16  C   UNL     1      10.347  44.149 -21.061  0.00  0.00    +0.000 A 
ATOM     17  C   UNL     1      11.129  45.228 -21.449  0.00  0.00    +0.000 A 
ATOM     18  C   UNL     1      10.828  46.528 -21.061  0.00  0.00    +0.000 A 
ATOM     19  O   UNL     1      11.820  47.465 -20.777  0.00  0.00    +0.000 OA
ATOM     20  C   UNL     1       9.583  46.756 -20.484  0.00  0.00    +0.000 A 
ATOM     21  C   UNL     1       8.798  45.647 -20.213  0.00  0.00    +0.000 A 
ENDBRANCH  14  15
ENDBRANCH  12  13
BRANCH   7   6
ATOM      6  O   UNL     1       8.186  46.371 -13.914  0.00  0.00    +0.000 OA
BRANCH   6   5
ATOM      3  C   UNL     1       5.179  47.333 -14.104  0.00  0.00    +0.000 C 
ATOM      4  O   UNL     1       6.588  47.831 -14.175  0.00  0.00    +0.000 OA
ATOM      5  C   UNL     1       6.768  46.577 -13.330  0.00  0.00    +0.000 C 
ATOM     23  C   UNL     1       7.312  47.536 -12.036  0.00  0.00    +0.000 C 
ATOM     24  O   UNL     1       6.732  46.629 -10.984  0.00  0.00    +0.000 OA
ATOM     25  C   UNL     1       6.076  48.688 -11.907  0.00  0.00    +0.000 C 
ATOM     26  O   UNL     1       6.526  49.565 -13.057  0.00  0.00    +0.000 OA
ATOM     27  C   UNL     1       4.694  48.020 -12.628  0.00  0.00    +0.000 C 
ATOM     28  O   UNL     1       4.732  46.687 -11.919  0.00  0.00    +0.000 OA
BRANCH   3   2
ATOM      1  O   UNL     1       4.598  48.696 -15.539  0.00  0.00    +0.000 OA
ATOM      2  C   UNL     1       4.587  48.628 -14.934  0.00  0.00    +0.000 C 
ENDBRANCH   3   2
ENDBRANCH   6   5
ENDBRANCH   7   6
TORSDOF 5
ENDMDL
MODEL 3
REMARK VINA RESULT:      -6.8     16.126     18.322
REMARK  Name = 
REMARK  5 active torsions:
REMARK  status: ('A' for Active; 'I' for Inactive)
REMARK    1  A    between atoms: C_2  and  C_3
REMARK    2  A    between atoms: C_5  and  O_6
REMARK    3  A    between atoms: O_6  and  C_7
REMARK    4  A    between atoms: C_12  and  C_13
REMARK    5  A    between atoms: C_14  and  C_15
REMARK                            x       y       z     vdW  Elec       q    Type
REMARK                         _______ _______ _______ _____ _____    ______ ____
ROOT
ATOM      7  C   UNL     1      21.181  65.107  17.404  0.00  0.00    +0.000 A 
ATOM      8  C   UNL     1      21.831  65.767  18.440  0.00  0.00    +0.000 A 
ATOM      9  C   UNL     1      21.599  67.108  18.713  0.00  0.00    +0.000 A 
ATOM     10  O   UNL     1      21.504  67.579  20.020  0.00  0.00    +0.000 OA
ATOM     11  C   UNL     1      20.970  67.794  17.709  0.00  0.00    +0.000 A 
ATOM     12  C   UNL     1      20.810  67.240  16.439  0.00  0.00    +0.000 A 
ATOM     22  C   UNL     1      20.880  65.882  16.292  0.00  0.00    +0.000 A 
ENDROOT
BRANCH  12  13
ATOM     13  C   UNL     1      20.751  68.206  15.355  0.00  0.00    +0.000 C 
ATOM     14  C   UNL     1      19.819  68.590  14.623  0.00  0.00    +0.000 C 
BRANCH  14  15
ATOM     15  C   UNL     1      19.122  68.226  13.436  0.00  0.00    +0.000 A 
ATOM     16  C   UNL     1      18.479  69.087  12.562  0.00  0.00    +0.000 A 
ATOM     17  C   UNL     1      17.214  68.746  12.103  0.00  0.00    +0.000 A 
ATOM     18  C   UNL     1      16.645  67.507  12.371  0.00  0.00    +0.000 A 
ATOM     19  O   UNL     1      15.279  67.352  12.598  0.00  0.00    +0.000 OA
ATOM     20  C   UNL     1      17.472  66.519  12.896  0.00  0.00    +0.000 A 
ATOM     21  C   UNL     1      18.762  66.890  13.243  0.00  0.00    +0.000 A 
ENDBRANCH  14  15
ENDBRANCH  12  13
BRANCH   7   6
ATOM      6  O   UNL     1      20.995  63.784  17.424  0.00  0.00    +0.000 OA
BRANCH   6   5
ATOM      3  C   UNL     1      18.356  62.474  18.574  0.00  0.00    +0.000 C 
ATOM      4  O   UNL     1      19.834  62.266  18.474  0.00  0.00    +0.000 OA
ATOM      5  C   UNL     1      19.587  63.162  17.268  0.00  0.00    +0.000 C 
ATOM     23  C   UNL     1      20.122  61.917  16.242  0.00  0.00    +0.000 C 
ATOM     24  O   UNL     1      19.191  62.297  15.122  0.00  0.00    +0.000 OA
ATOM     25  C   UNL     1      19.176  60.607  16.755  0.00  0.00    +0.000 C 
ATOM     26  O   UNL     1      19.992  60.267  17.986  0.00  0.00    +0.000 OA
ATOM     27  C   UNL     1      17.811  61.249  17.529  0.00  0.00    +0.000 C 
ATOM     28  O   UNL     1      17.431  62.243  16.456  0.00  0.00    +0.000 OA
BRANCH   3   2
ATOM      1  O   UNL     1      18.270  61.633  20.455  0.00  0.00    +0.000 OA
ATOM      2  C   UNL     1      18.215  61.468  19.872  0.00  0.00    +0.000 C 
ENDBRANCH   3   2
ENDBRANCH   6   5
ENDBRANCH   7   6
TORSDOF 5
ENDMDL
MODEL 4
REMARK VINA RESULT:      -6.7      8.729     12.933
REMARK  Name = 
REMARK  5 active torsions:
REMARK  status: ('A' for Active; 'I' for Inactive)
REMARK    1  A    between atoms: C_2  and  C_3
REMARK    2  A    between atoms: C_5  and  O_6
REMARK    3  A    between atoms: O_6  and  C_7
REMARK    4  A    between atoms: C_12  and  C_13
REMARK    5  A    between atoms: C_14  and  C_15
REMARK                            x       y       z     vdW  Elec       q    Type
REMARK                         _______ _______ _______ _____ _____    ______ ____
ROOT
ATOM      7  C   UNL     1      10.115  56.592   2.522  0.00  0.00    +0.000 A 
ATOM      8  C   UNL     1       8.986  56.425   1.729  0.00  0.00    +0.000 A 
ATOM      9  C   UNL     1       9.016  55.678   0.559  0.00  0.00    +0.000 A 
ATOM     10  O   UNL     1       7.969  54.831   0.208  0.00  0.00    +0.000 OA
ATOM     11  C   UNL     1      10.273  55.418   0.082  0.00  0.00    +0.000 A 
ATOM     12  C   UNL     1      11.396  56.064   0.599  0.00  0.00    +0.000 A 
ATOM     22  C   UNL     1      11.326  56.624   1.845  0.00  0.00    +0.000 A 
ENDROOT
BRANCH  12  13
ATOM     13  C   UNL     1      12.496  56.222  -0.337  0.00  0.00    +0.000 C 
ATOM     14  C   UNL     1      13.716  56.411  -0.174  0.00  0.00    +0.000 C 
BRANCH  14  15
ATOM     15  C   UNL     1      14.652  57.459   0.058  0.00  0.00    +0.000 A 
ATOM     16  C   UNL     1      15.911  57.330   0.619  0.00  0.00    +0.000 A 
ATOM     17  C   UNL     1      16.305  58.243   1.587  0.00  0.00    +0.000 A 
ATOM     18  C   UNL     1      15.541  59.363   1.894  0.00  0.00    +0.000 A 
ATOM     19  O   UNL     1      15.449  59.864   3.191  0.00  0.00    +0.000 OA
ATOM     20  C   UNL     1      14.495  59.684   1.034  0.00  0.00    +0.000 A 
ATOM     21  C   UNL     1      14.210  58.784   0.019  0.00  0.00    +0.000 A 
ENDBRANCH  14  15
ENDBRANCH  12  13
BRANCH   7   6
ATOM      6  O   UNL     1      10.019  56.851   3.830  0.00  0.00    +0.000 OA
BRANCH   6   5
ATOM      3  C   UNL     1      11.891  56.590   6.365  0.00  0.00    +0.000 C 
ATOM      4  O   UNL     1      10.497  56.943   5.955  0.00  0.00    +0.000 OA
ATOM      5  C   UNL     1      11.259  57.239   4.671  0.00  0.00    +0.000 C 
ATOM     23  C   UNL     1      10.811  58.875   4.791  0.00  0.00    +0.000 C 
ATOM     24  O   UNL     1      12.085  59.377   4.166  0.00  0.00    +0.000 OA
ATOM     25  C   UNL     1      11.286  59.255   6.372  0.00  0.00    +0.000 C 
ATOM     26  O   UNL     1      10.095  58.632   7.072  0.00  0.00    +0.000 OA
ATOM     27  C   UNL     1      12.464  58.122   6.826  0.00  0.00    +0.000 C 
ATOM     28  O   UNL     1      13.330  58.242   5.594  0.00  0.00    +0.000 OA
BRANCH   3   2
ATOM      1  O   UNL     1      11.476  55.715   8.186  0.00  0.00    +0.000 OA
ATOM      2  C   UNL     1      11.444  56.260   7.917  0.00  0.00    +0.000 C 
ENDBRANCH   3   2
ENDBRANCH   6   5
ENDBRANCH   7   6
TORSDOF 5
ENDMDL
MODEL 5
REMARK VINA RESULT:      -6.7      2.437      4.477
REMARK  Name = 
REMARK  5 active torsions:
REMARK  status: ('A' for Active; 'I' for Inactive)
REMARK    1  A    between atoms: C_2  and  C_3
REMARK    2  A    between atoms: C_5  and  O_6
REMARK    3  A    between atoms: O_6  and  C_7
REMARK    4  A    between atoms: C_12  and  C_13
REMARK    5  A    between atoms: C_14  and  C_15
REMARK                            x       y       z     vdW  Elec       q    Type
REMARK                         _______ _______ _______ _____ _____    ______ ____
ROOT
ATOM      7  C   UNL     1       6.729  58.255   9.391  0.00  0.00    +0.000 A 
ATOM      8  C   UNL     1       6.715  57.444  10.520  0.00  0.00    +0.000 A 
ATOM      9  C   UNL     1       5.610  56.672  10.853  0.00  0.00    +0.000 A 
ATOM     10  O   UNL     1       5.747  55.377  11.343  0.00  0.00    +0.000 OA
ATOM     11  C   UNL     1       4.455  57.022  10.206  0.00  0.00    +0.000 A 
ATOM     12  C   UNL     1       4.361  58.204   9.473  0.00  0.00    +0.000 A 
ATOM     22  C   UNL     1       5.507  58.806   9.031  0.00  0.00    +0.000 A 
ENDROOT
BRANCH  12  13
ATOM     13  C   UNL     1       3.026  58.773   9.399  0.00  0.00    +0.000 C 
ATOM     14  C   UNL     1       2.444  59.639  10.080  0.00  0.00    +0.000 C 
BRANCH  14  15
ATOM     15  C   UNL     1       1.708  59.785  11.290  0.00  0.00    +0.000 A 
ATOM     16  C   UNL     1       1.714  60.884  12.131  0.00  0.00    +0.000 A 
ATOM     17  C   UNL     1       1.815  60.675  13.499  0.00  0.00    +0.000 A 
ATOM     18  C   UNL     1       1.755  59.402  14.053  0.00  0.00    +0.000 A 
ATOM     19  O   UNL     1       2.510  59.042  15.167  0.00  0.00    +0.000 OA
ATOM     20  C   UNL     1       1.338  58.360  13.229  0.00  0.00    +0.000 A 
ATOM     21  C   UNL     1       1.152  58.650  11.887  0.00  0.00    +0.000 A 
ENDBRANCH  14  15
ENDBRANCH  12  13
BRANCH   7   6
ATOM      6  O   UNL     1       7.873  58.594   8.788  0.00  0.00    +0.000 OA
BRANCH   6   5
ATOM      3  C   UNL     1       9.989  56.389   7.976  0.00  0.00    +0.000 C 
ATOM      4  O   UNL     1       9.877  57.778   8.520  0.00  0.00    +0.000 OA
ATOM      5  C   UNL     1       8.559  57.656   7.767  0.00  0.00    +0.000 C 
ATOM     23  C   UNL     1       9.034  58.925   6.742  0.00  0.00    +0.000 C 
ATOM     24  O   UNL     1       8.311  58.368   5.545  0.00  0.00    +0.000 OA
ATOM     25  C   UNL     1      10.561  58.405   6.222  0.00  0.00    +0.000 C 
ATOM     26  O   UNL     1      11.323  58.810   7.469  0.00  0.00    +0.000 OA
ATOM     27  C   UNL     1      10.614  56.723   6.431  0.00  0.00    +0.000 C 
ATOM     28  O   UNL     1       9.300  56.405   5.758  0.00  0.00    +0.000 OA
BRANCH   3   2
ATOM      1  O   UNL     1      11.664  55.802   9.026  0.00  0.00    +0.000 OA
ATOM      2  C   UNL     1      11.510  56.183   8.577  0.00  0.00    +0.000 C 
ENDBRANCH   3   2
ENDBRANCH   6   5
ENDBRANCH   7   6
TORSDOF 5
ENDMDL
MODEL 6
REMARK VINA RESULT:      -6.4     23.770     27.934
REMARK  Name = 
REMARK  5 active torsions:
REMARK  status: ('A' for Active; 'I' for Inactive)
REMARK    1  A    between atoms: C_2  and  C_3
REMARK    2  A    between atoms: C_5  and  O_6
REMARK    3  A    between atoms: O_6  and  C_7
REMARK    4  A    between atoms: C_12  and  C_13
REMARK    5  A    between atoms: C_14  and  C_15
REMARK                            x       y       z     vdW  Elec       q    Type
REMARK                         _______ _______ _______ _____ _____    ______ ____
ROOT
ATOM      7  C   UNL     1      15.306  64.589 -12.668  0.00  0.00    +0.000 A 
ATOM      8  C   UNL     1      14.820  63.445 -12.047  0.00  0.00    +0.000 A 
ATOM      9  C   UNL     1      14.921  62.192 -12.637  0.00  0.00    +0.000 A 
ATOM     10  O   UNL     1      15.240  61.060 -11.893  0.00  0.00    +0.000 OA
ATOM     11  C   UNL     1      15.208  62.214 -13.975  0.00  0.00    +0.000 A 
ATOM     12  C   UNL     1      15.155  63.398 -14.711  0.00  0.00    +0.000 A 
ATOM     22  C   UNL     1      15.241  64.595 -14.055  0.00  0.00    +0.000 A 
ENDROOT
BRANCH  12  13
ATOM     13  C   UNL     1      14.836  63.228 -16.119  0.00  0.00    +0.000 C 
ATOM     14  C   UNL     1      14.504  62.232 -16.790  0.00  0.00    +0.000 C 
BRANCH  14  15
ATOM     15  C   UNL     1      15.072  61.123 -17.479  0.00  0.00    +0.000 A 
ATOM     16  C   UNL     1      15.039  59.799 -17.077  0.00  0.00    +0.000 A 
ATOM     17  C   UNL     1      16.204  59.049 -17.160  0.00  0.00    +0.000 A 
ATOM     18  C   UNL     1      17.351  59.540 -17.773  0.00  0.00    +0.000 A 
ATOM     19  O   UNL     1      18.628  59.237 -17.306  0.00  0.00    +0.000 OA
ATOM     20  C   UNL     1      17.230  60.705 -18.525  0.00  0.00    +0.000 A 
ATOM     21  C   UNL     1      16.010  61.359 -18.488  0.00  0.00    +0.000 A 
ENDBRANCH  14  15
ENDBRANCH  12  13
BRANCH   7   6
ATOM      6  O   UNL     1      15.672  65.665 -11.965  0.00  0.00    +0.000 OA
BRANCH   6   5
ATOM      3  C   UNL     1      17.660  65.177  -9.554  0.00  0.00    +0.000 C 
ATOM      4  O   UNL     1      16.397  65.891  -9.921  0.00  0.00    +0.000 OA
ATOM      5  C   UNL     1      17.060  65.755 -11.286  0.00  0.00    +0.000 C 
ATOM     23  C   UNL     1      17.141  67.448 -11.408  0.00  0.00    +0.000 C 
ATOM     24  O   UNL     1      18.425  67.435 -12.192  0.00  0.00    +0.000 OA
ATOM     25  C   UNL     1      17.887  67.872  -9.947  0.00  0.00    +0.000 C 
ATOM     26  O   UNL     1      16.653  67.756  -9.074  0.00  0.00    +0.000 OA
ATOM     27  C   UNL     1      18.715  66.499  -9.393  0.00  0.00    +0.000 C 
ATOM     28  O   UNL     1      19.428  66.172 -10.683  0.00  0.00    +0.000 OA
BRANCH   3   2
ATOM      1  O   UNL     1      16.904  64.871  -7.659  0.00  0.00    +0.000 OA
ATOM      2  C   UNL     1      17.316  65.219  -7.942  0.00  0.00    +0.000 C 
ENDBRANCH   3   2
ENDBRANCH   6   5
ENDBRANCH   7   6
TORSDOF 5
ENDMDL
MODEL 7
REMARK VINA RESULT:      -6.4     27.366     30.329
REMARK  Name = 
REMARK  5 active torsions:
REMARK  status: ('A' for Active; 'I' for Inactive)
REMARK    1  A    between atoms: C_2  and  C_3
REMARK    2  A    between atoms: C_5  and  O_6
REMARK    3  A    between atoms: O_6  and  C_7
REMARK    4  A    between atoms: C_12  and  C_13
REMARK    5  A    between atoms: C_14  and  C_15
REMARK                            x       y       z     vdW  Elec       q    Type
REMARK                         _______ _______ _______ _____ _____    ______ ____
ROOT
ATOM      7  C   UNL     1       5.285  81.789  29.806  0.00  0.00    +0.000 A 
ATOM      8  C   UNL     1       6.641  81.502  29.913  0.00  0.00    +0.000 A 
ATOM      9  C   UNL     1       7.564  81.976  28.990  0.00  0.00    +0.000 A 
ATOM     10  O   UNL     1       8.814  82.445  29.385  0.00  0.00    +0.000 OA
ATOM     11  C   UNL     1       7.018  82.434  27.821  0.00  0.00    +0.000 A 
ATOM     12  C   UNL     1       5.679  82.207  27.506  0.00  0.00    +0.000 A 
ATOM     22  C   UNL     1       4.798  81.918  28.512  0.00  0.00    +0.000 A 
ENDROOT
BRANCH  12  13
ATOM     13  C   UNL     1       5.389  82.137  26.084  0.00  0.00    +0.000 C 
ATOM     14  C   UNL     1       6.102  81.888  25.094  0.00  0.00    +0.000 C 
BRANCH  14  15
ATOM     15  C   UNL     1       7.003  82.521  24.191  0.00  0.00    +0.000 A 
ATOM     16  C   UNL     1       7.632  81.933  23.107  0.00  0.00    +0.000 A 
ATOM     17  C   UNL     1       8.984  82.177  22.910  0.00  0.00    +0.000 A 
ATOM     18  C   UNL     1       9.680  83.108  23.672  0.00  0.00    +0.000 A 
ATOM     19  O   UNL     1      11.009  82.915  24.044  0.00  0.00    +0.000 OA
ATOM     20  C   UNL     1       8.937  83.973  24.469  0.00  0.00    +0.000 A 
ATOM     21  C   UNL     1       7.572  83.746  24.549  0.00  0.00    +0.000 A 
ENDBRANCH  14  15
ENDBRANCH  12  13
BRANCH   7   6
ATOM      6  O   UNL     1       4.484  81.790  30.875  0.00  0.00    +0.000 OA
BRANCH   6   5
ATOM      3  C   UNL     1       4.108  79.623  33.149  0.00  0.00    +0.000 C 
ATOM      4  O   UNL     1       3.435  80.796  32.508  0.00  0.00    +0.000 OA
ATOM      5  C   UNL     1       4.895  81.095  32.196  0.00  0.00    +0.000 C 
ATOM     23  C   UNL     1       4.793  82.521  33.115  0.00  0.00    +0.000 C 
ATOM     24  O   UNL     1       6.223  82.449  33.578  0.00  0.00    +0.000 OA
ATOM     25  C   UNL     1       4.156  81.952  34.579  0.00  0.00    +0.000 C 
ATOM     26  O   UNL     1       2.713  81.860  34.124  0.00  0.00    +0.000 OA
ATOM     27  C   UNL     1       4.499  80.293  34.661  0.00  0.00    +0.000 C 
ATOM     28  O   UNL     1       5.967  80.384  34.315  0.00  0.00    +0.000 OA
BRANCH   3   2
ATOM      1  O   UNL     1       2.303  78.672  33.445  0.00  0.00    +0.000 OA
ATOM      2  C   UNL     1       2.692  79.028  33.748  0.00  0.00    +0.000 C 
ENDBRANCH   3   2
ENDBRANCH   6   5
ENDBRANCH   7   6
TORSDOF 5
ENDMDL
MODEL 8
REMARK VINA RESULT:      -6.4      3.133      4.423
REMARK  Name = 
REMARK  5 active torsions:
REMARK  status: ('A' for Active; 'I' for Inactive)
REMARK    1  A    between atoms: C_2  and  C_3
REMARK    2  A    between atoms: C_5  and  O_6
REMARK    3  A    between atoms: O_6  and  C_7
REMARK    4  A    between atoms: C_12  and  C_13
REMARK    5  A    between atoms: C_14  and  C_15
REMARK                            x       y       z     vdW  Elec       q    Type
REMARK                         _______ _______ _______ _____ _____    ______ ____
ROOT
ATOM      7  C   UNL     1       6.555  60.029   7.724  0.00  0.00    +0.000 A 
ATOM      8  C   UNL     1       5.981  60.528   6.561  0.00  0.00    +0.000 A 
ATOM      9  C   UNL     1       4.841  61.320   6.589  0.00  0.00    +0.000 A 
ATOM     10  O   UNL     1       4.702  62.425   5.755  0.00  0.00    +0.000 OA
ATOM     11  C   UNL     1       4.151  61.284   7.771  0.00  0.00    +0.000 A 
ATOM     12  C   UNL     1       4.445  60.342   8.756  0.00  0.00    +0.000 A 
ATOM     22  C   UNL     1       5.671  59.736   8.754  0.00  0.00    +0.000 A 
ENDROOT
BRANCH  12  13
ATOM     13  C   UNL     1       3.323  59.974   9.604  0.00  0.00    +0.000 C 
ATOM     14  C   UNL     1       2.252  60.551   9.876  0.00  0.00    +0.000 C 
BRANCH  14  15
ATOM     15  C   UNL     1       1.720  61.537  10.753  0.00  0.00    +0.000 A 
ATOM     16  C   UNL     1       1.114  61.310  11.977  0.00  0.00    +0.000 A 
ATOM     17  C   UNL     1      -0.063  61.984  12.272  0.00  0.00    +0.000 A 
ATOM     18  C   UNL     1      -0.563  62.984  11.447  0.00  0.00    +0.000 A 
ATOM     19  O   UNL     1      -1.930  63.169  11.251  0.00  0.00    +0.000 OA
ATOM     20  C   UNL     1       0.274  63.472  10.447  0.00  0.00    +0.000 A 
ATOM     21  C   UNL     1       1.486  62.825  10.264  0.00  0.00    +0.000 A 
ENDBRANCH  14  15
ENDBRANCH  12  13
BRANCH   7   6
ATOM      6  O   UNL     1       7.853  59.715   7.786  0.00  0.00    +0.000 OA
BRANCH   6   5
ATOM      3  C   UNL     1       9.192  56.852   7.681  0.00  0.00    +0.000 C 
ATOM      4  O   UNL     1       9.426  58.251   8.156  0.00  0.00    +0.000 OA
ATOM      5  C   UNL     1       8.426  58.491   7.032  0.00  0.00    +0.000 C 
ATOM     23  C   UNL     1       9.594  59.403   6.199  0.00  0.00    +0.000 C 
ATOM     24  O   UNL     1       9.099  58.987   4.839  0.00  0.00    +0.000 OA
ATOM     25  C   UNL     1      10.919  58.347   6.181  0.00  0.00    +0.000 C 
ATOM     26  O   UNL     1      11.380  58.613   7.600  0.00  0.00    +0.000 OA
ATOM     27  C   UNL     1      10.311  56.779   6.404  0.00  0.00    +0.000 C 
ATOM     28  O   UNL     1       9.223  56.844   5.359  0.00  0.00    +0.000 OA
BRANCH   3   2
ATOM      1  O   UNL     1      10.193  55.777   9.129  0.00  0.00    +0.000 OA
ATOM      2  C   UNL     1      10.300  56.220   8.726  0.00  0.00    +0.000 C 
ENDBRANCH   3   2
ENDBRANCH   6   5
ENDBRANCH   7   6
TORSDOF 5
ENDMDL
MODEL 9
REMARK VINA RESULT:      -6.3     17.270     19.563
REMARK  Name = 
REMARK  5 active torsions:
REMARK  status: ('A' for Active; 'I' for Inactive)
REMARK    1  A    between atoms: C_2  and  C_3
REMARK    2  A    between atoms: C_5  and  O_6
REMARK    3  A    between atoms: O_6  and  C_7
REMARK    4  A    between atoms: C_12  and  C_13
REMARK    5  A    between atoms: C_14  and  C_15
REMARK                            x       y       z     vdW  Elec       q    Type
REMARK                         _______ _______ _______ _____ _____    ______ ____
ROOT
ATOM      7  C   UNL     1      20.741  65.182  17.091  0.00  0.00    +0.000 A 
ATOM      8  C   UNL     1      21.557  66.081  17.767  0.00  0.00    +0.000 A 
ATOM      9  C   UNL     1      21.301  67.446  17.765  0.00  0.00    +0.000 A 
ATOM     10  O   UNL     1      21.462  68.219  18.912  0.00  0.00    +0.000 OA
ATOM     11  C   UNL     1      20.425  67.860  16.799  0.00  0.00    +0.000 A 
ATOM     12  C   UNL     1      20.028  67.012  15.765  0.00  0.00    +0.000 A 
ATOM     22  C   UNL     1      20.155  65.660  15.927  0.00  0.00    +0.000 A 
ENDROOT
BRANCH  12  13
ATOM     13  C   UNL     1      19.670  67.685  14.527  0.00  0.00    +0.000 C 
ATOM     14  C   UNL     1      20.349  68.279  13.668  0.00  0.00    +0.000 C 
BRANCH  14  15
ATOM     15  C   UNL     1      20.929  69.552  13.402  0.00  0.00    +0.000 A 
ATOM     16  C   UNL     1      22.278  69.829  13.258  0.00  0.00    +0.000 A 
ATOM     17  C   UNL     1      22.801  70.943  13.900  0.00  0.00    +0.000 A 
ATOM     18  C   UNL     1      21.988  71.864  14.550  0.00  0.00    +0.000 A 
ATOM     19  O   UNL     1      22.386  72.508  15.720  0.00  0.00    +0.000 OA
ATOM     20  C   UNL     1      20.616  71.781  14.329  0.00  0.00    +0.000 A 
ATOM     21  C   UNL     1      20.158  70.701  13.592  0.00  0.00    +0.000 A 
ENDBRANCH  14  15
ENDBRANCH  12  13
BRANCH   7   6
ATOM      6  O   UNL     1      20.653  63.901  17.462  0.00  0.00    +0.000 OA
BRANCH   6   5
ATOM      3  C   UNL     1      18.230  62.405  18.838  0.00  0.00    +0.000 C 
ATOM      4  O   UNL     1      19.713  62.335  18.653  0.00  0.00    +0.000 OA
ATOM      5  C   UNL     1      19.306  63.139  17.425  0.00  0.00    +0.000 C 
ATOM     23  C   UNL     1      19.900  61.899  16.426  0.00  0.00    +0.000 C 
ATOM     24  O   UNL     1      18.871  62.129  15.352  0.00  0.00    +0.000 OA
ATOM     25  C   UNL     1      19.122  60.533  17.058  0.00  0.00    +0.000 C 
ATOM     26  O   UNL     1      20.039  60.338  18.249  0.00  0.00    +0.000 OA
ATOM     27  C   UNL     1      17.748  61.081  17.888  0.00  0.00    +0.000 C 
ATOM     28  O   UNL     1      17.209  61.976  16.797  0.00  0.00    +0.000 OA
BRANCH   3   2
ATOM      1  O   UNL     1      18.603  61.564  20.684  0.00  0.00    +0.000 OA
ATOM      2  C   UNL     1      18.267  61.459  20.188  0.00  0.00    +0.000 C 
ENDBRANCH   3   2
ENDBRANCH   6   5
ENDBRANCH   7   6
TORSDOF 5
ENDMDL
MODEL 10
REMARK VINA RESULT:      -6.3     20.473     24.435
REMARK  Name = 
REMARK  5 active torsions:
REMARK  status: ('A' for Active; 'I' for Inactive)
REMARK    1  A    between atoms: C_2  and  C_3
REMARK    2  A    between atoms: C_5  and  O_6
REMARK    3  A    between atoms: O_6  and  C_7
REMARK    4  A    between atoms: C_12  and  C_13
REMARK    5  A    between atoms: C_14  and  C_15
REMARK                            x       y       z     vdW  Elec       q    Type
REMARK                         _______ _______ _______ _____ _____    ______ ____
ROOT
ATOM      7  C   UNL     1      25.546  51.415   3.179  0.00  0.00    +0.000 A 
ATOM      8  C   UNL     1      26.860  51.837   3.349  0.00  0.00    +0.000 A 
ATOM      9  C   UNL     1      27.242  52.624   4.428  0.00  0.00    +0.000 A 
ATOM     10  O   UNL     1      28.443  52.410   5.096  0.00  0.00    +0.000 OA
ATOM     11  C   UNL     1      26.204  53.220   5.093  0.00  0.00    +0.000 A 
ATOM     12  C   UNL     1      24.911  53.225   4.571  0.00  0.00    +0.000 A 
ATOM     22  C   UNL     1      24.569  52.291   3.632  0.00  0.00    +0.000 A 
ENDROOT
BRANCH  12  13
ATOM     13  C   UNL     1      24.095  54.359   4.970  0.00  0.00    +0.000 C 
ATOM     14  C   UNL     1      23.021  54.814   4.534  0.00  0.00    +0.000 C 
BRANCH  14  15
ATOM     15  C   UNL     1      22.514  55.670   3.516  0.00  0.00    +0.000 A 
ATOM     16  C   UNL     1      21.331  55.506   2.815  0.00  0.00    +0.000 A 
ATOM     17  C   UNL     1      21.343  55.686   1.439  0.00  0.00    +0.000 A 
ATOM     18  C   UNL     1      22.461  56.172   0.772  0.00  0.00    +0.000 A 
ATOM     19  O   UNL     1      22.814  55.730  -0.501  0.00  0.00    +0.000 OA
ATOM     20  C   UNL     1      23.485  56.713   1.542  0.00  0.00    +0.000 A 
ATOM     21  C   UNL     1      23.372  56.597   2.918  0.00  0.00    +0.000 A 
ENDBRANCH  14  15
ENDBRANCH  12  13
BRANCH   7   6
ATOM      6  O   UNL     1      25.251  50.308   2.490  0.00  0.00    +0.000 OA
BRANCH   6   5
ATOM      3  C   UNL     1      26.210  49.215  -0.318  0.00  0.00    +0.000 C 
ATOM      4  O   UNL     1      25.161  49.023   0.731  0.00  0.00    +0.000 OA
ATOM      5  C   UNL     1      26.285  49.636   1.555  0.00  0.00    +0.000 C 
ATOM     23  C   UNL     1      26.374  48.214   2.481  0.00  0.00    +0.000 C 
ATOM     24  O   UNL     1      27.858  48.328   2.705  0.00  0.00    +0.000 OA
ATOM     25  C   UNL     1      26.516  47.022   1.285  0.00  0.00    +0.000 C 
ATOM     26  O   UNL     1      25.049  46.969   0.909  0.00  0.00    +0.000 OA
ATOM     27  C   UNL     1      27.105  47.784  -0.111  0.00  0.00    +0.000 C 
ATOM     28  O   UNL     1      28.252  48.519   0.541  0.00  0.00    +0.000 OA
BRANCH   3   2
ATOM      1  O   UNL     1      24.823  48.763  -1.776  0.00  0.00    +0.000 OA
ATOM      2  C   UNL     1      25.292  48.504  -1.489  0.00  0.00    +0.000 C 
ENDBRANCH   3   2
ENDBRANCH   6   5
ENDBRANCH   7   6
TORSDOF 5
ENDMDL
