MODEL 1
REMARK VINA RESULT:      -7.2      0.000      0.000
REMARK  Name = 
REMARK  5 active torsions:
REMARK  status: ('A' for Active; 'I' for Inactive)
REMARK    1  A    between atoms: C_2  and  C_3
REMARK    2  A    between atoms: C_5  and  O_6
REMARK    3  A    between atoms: O_6  and  C_7
REMARK    4  A    between atoms: C_10  and  C_11
REMARK    5  A    between atoms: C_12  and  C_13
REMARK                            x       y       z     vdW  Elec       q    Type
REMARK                         _______ _______ _______ _____ _____    ______ ____
ROOT
ATOM      7  C   UNL     1       7.809  44.017 -13.288  0.00  0.00    +0.000 A 
ATOM      8  C   UNL     1       7.053  42.851 -13.162  0.00  0.00    +0.000 A 
ATOM      9  C   UNL     1       7.123  41.840 -14.131  0.00  0.00    +0.000 A 
ATOM     10  C   UNL     1       7.795  42.067 -15.332  0.00  0.00    +0.000 A 
ATOM     21  C   UNL     1       8.912  42.871 -15.110  0.00  0.00    +0.000 A 
ATOM     22  C   UNL     1       8.961  43.766 -14.043  0.00  0.00    +0.000 A 
ENDROOT
BRANCH  10  11
ATOM     11  C   UNL     1       7.103  42.112 -16.633  0.00  0.00    +0.000 C 
ATOM     12  C   UNL     1       6.239  41.144 -16.843  0.00  0.00    +0.000 C 
BRANCH  12  13
ATOM     13  C   UNL     1       6.770  39.794 -16.681  0.00  0.00    +0.000 A 
ATOM     14  C   UNL     1       6.015  38.927 -15.910  0.00  0.00    +0.000 A 
ATOM     15  C   UNL     1       6.418  37.623 -15.675  0.00  0.00    +0.000 A 
ATOM     16  O   UNL     1       5.765  36.896 -14.715  0.00  0.00    +0.000 OA
ATOM     17  C   UNL     1       7.516  37.203 -16.382  0.00  0.00    +0.000 A 
ATOM     18  C   UNL     1       8.089  37.957 -17.398  0.00  0.00    +0.000 A 
ATOM     19  O   UNL     1       9.173  37.503 -18.140  0.00  0.00    +0.000 OA
ATOM     20  C   UNL     1       7.644  39.242 -17.587  0.00  0.00    +0.000 A 
ENDBRANCH  12  13
ENDBRANCH  10  11
BRANCH   7   6
ATOM      6  O   UNL     1       7.289  45.288 -13.152  0.00  0.00    +0.000 OA
BRANCH   6   5
ATOM      3  C   UNL     1       5.829  46.549 -13.956  0.00  0.00    +0.000 C 
ATOM      4  O   UNL     1       7.096  47.208 -14.478  0.00  0.00    +0.000 OA
ATOM      5  C   UNL     1       8.218  46.419 -13.762  0.00  0.00    +0.000 C 
ATOM     23  C   UNL     1       8.211  47.412 -12.294  0.00  0.00    +0.000 C 
ATOM     24  O   UNL     1       7.732  48.677 -12.960  0.00  0.00    +0.000 OA
ATOM     25  C   UNL     1       6.682  46.857 -11.712  0.00  0.00    +0.000 C 
ATOM     26  O   UNL     1       6.689  47.962 -10.669  0.00  0.00    +0.000 OA
ATOM     27  C   UNL     1       5.706  47.820 -12.761  0.00  0.00    +0.000 C 
ATOM     28  O   UNL     1       4.468  47.186 -12.182  0.00  0.00    +0.000 OA
BRANCH   3   2
ATOM      1  O   UNL     1       5.499  47.628 -15.865  0.00  0.00    +0.000 OA
ATOM      2  C   UNL     1       4.918  47.416 -15.052  0.00  0.00    +0.000 C 
ENDBRANCH   3   2
ENDBRANCH   6   5
ENDBRANCH   7   6
TORSDOF 5
ENDMDL
MODEL 2
REMARK VINA RESULT:      -6.9     33.020     37.510
REMARK  Name = 
REMARK  5 active torsions:
REMARK  status: ('A' for Active; 'I' for Inactive)
REMARK    1  A    between atoms: C_2  and  C_3
REMARK    2  A    between atoms: C_5  and  O_6
REMARK    3  A    between atoms: O_6  and  C_7
REMARK    4  A    between atoms: C_10  and  C_11
REMARK    5  A    between atoms: C_12  and  C_13
REMARK                            x       y       z     vdW  Elec       q    Type
REMARK                         _______ _______ _______ _____ _____    ______ ____
ROOT
ATOM      7  C   UNL     1       6.360  53.940  19.226  0.00  0.00    +0.000 A 
ATOM      8  C   UNL     1       5.949  55.117  19.851  0.00  0.00    +0.000 A 
ATOM      9  C   UNL     1       6.491  55.504  21.085  0.00  0.00    +0.000 A 
ATOM     10  C   UNL     1       7.302  54.622  21.799  0.00  0.00    +0.000 A 
ATOM     21  C   UNL     1       8.083  53.872  20.921  0.00  0.00    +0.000 A 
ATOM     22  C   UNL     1       7.664  53.615  19.617  0.00  0.00    +0.000 A 
ENDROOT
BRANCH  10  11
ATOM     11  C   UNL     1       6.903  54.053  23.100  0.00  0.00    +0.000 C 
ATOM     12  C   UNL     1       7.458  54.611  24.152  0.00  0.00    +0.000 C 
BRANCH  12  13
ATOM     13  C   UNL     1       8.917  54.660  24.129  0.00  0.00    +0.000 A 
ATOM     14  C   UNL     1       9.483  55.833  23.662  0.00  0.00    +0.000 A 
ATOM     15  C   UNL     1      10.856  55.997  23.584  0.00  0.00    +0.000 A 
ATOM     16  O   UNL     1      11.352  57.071  22.892  0.00  0.00    +0.000 OA
ATOM     17  C   UNL     1      11.608  54.997  24.147  0.00  0.00    +0.000 A 
ATOM     18  C   UNL     1      11.052  53.973  24.903  0.00  0.00    +0.000 A 
ATOM     19  O   UNL     1      11.826  52.990  25.507  0.00  0.00    +0.000 OA
ATOM     20  C   UNL     1       9.684  53.865  24.947  0.00  0.00    +0.000 A 
ENDBRANCH  12  13
ENDBRANCH  10  11
BRANCH   7   6
ATOM      6  O   UNL     1       5.490  52.991  18.727  0.00  0.00    +0.000 OA
BRANCH   6   5
ATOM      3  C   UNL     1       3.745  52.431  17.723  0.00  0.00    +0.000 C 
ATOM      4  O   UNL     1       3.465  51.881  19.113  0.00  0.00    +0.000 OA
ATOM      5  C   UNL     1       4.806  52.109  19.853  0.00  0.00    +0.000 C 
ATOM     23  C   UNL     1       5.553  50.594  19.317  0.00  0.00    +0.000 C 
ATOM     24  O   UNL     1       4.265  49.825  19.167  0.00  0.00    +0.000 OA
ATOM     25  C   UNL     1       5.742  51.064  17.665  0.00  0.00    +0.000 C 
ATOM     26  O   UNL     1       6.095  49.630  17.308  0.00  0.00    +0.000 OA
ATOM     27  C   UNL     1       4.102  50.803  17.193  0.00  0.00    +0.000 C 
ATOM     28  O   UNL     1       4.426  51.302  15.809  0.00  0.00    +0.000 OA
BRANCH   3   2
ATOM      1  O   UNL     1       1.859  53.051  16.733  0.00  0.00    +0.000 OA
ATOM      2  C   UNL     1       2.133  52.265  17.326  0.00  0.00    +0.000 C 
ENDBRANCH   3   2
ENDBRANCH   6   5
ENDBRANCH   7   6
TORSDOF 5
ENDMDL
MODEL 3
REMARK VINA RESULT:      -6.9     23.043     28.188
REMARK  Name = 
REMARK  5 active torsions:
REMARK  status: ('A' for Active; 'I' for Inactive)
REMARK    1  A    between atoms: C_2  and  C_3
REMARK    2  A    between atoms: C_5  and  O_6
REMARK    3  A    between atoms: O_6  and  C_7
REMARK    4  A    between atoms: C_10  and  C_11
REMARK    5  A    between atoms: C_12  and  C_13
REMARK                            x       y       z     vdW  Elec       q    Type
REMARK                         _______ _______ _______ _____ _____    ______ ____
ROOT
ATOM      7  C   UNL     1       8.834  59.052   7.704  0.00  0.00    +0.000 A 
ATOM      8  C   UNL     1       8.283  60.300   7.412  0.00  0.00    +0.000 A 
ATOM      9  C   UNL     1       6.963  60.605   7.773  0.00  0.00    +0.000 A 
ATOM     10  C   UNL     1       6.118  59.603   8.250  0.00  0.00    +0.000 A 
ATOM     21  C   UNL     1       6.842  58.699   9.027  0.00  0.00    +0.000 A 
ATOM     22  C   UNL     1       8.205  58.496   8.824  0.00  0.00    +0.000 A 
ENDROOT
BRANCH  10  11
ATOM     11  C   UNL     1       4.927  59.148   7.509  0.00  0.00    +0.000 C 
ATOM     12  C   UNL     1       4.060  60.089   7.209  0.00  0.00    +0.000 C 
BRANCH  12  13
ATOM     13  C   UNL     1       3.590  60.883   8.341  0.00  0.00    +0.000 A 
ATOM     14  C   UNL     1       3.443  62.241   8.118  0.00  0.00    +0.000 A 
ATOM     15  C   UNL     1       3.013  63.099   9.116  0.00  0.00    +0.000 A 
ATOM     16  O   UNL     1       3.120  64.450   8.912  0.00  0.00    +0.000 OA
ATOM     17  C   UNL     1       2.592  62.500  10.276  0.00  0.00    +0.000 A 
ATOM     18  C   UNL     1       2.431  61.126  10.397  0.00  0.00    +0.000 A 
ATOM     19  O   UNL     1       1.960  60.531  11.561  0.00  0.00    +0.000 OA
ATOM     20  C   UNL     1       2.872  60.325   9.371  0.00  0.00    +0.000 A 
ENDBRANCH  12  13
ENDBRANCH  10  11
BRANCH   7   6
ATOM      6  O   UNL     1       9.504  58.274   6.782  0.00  0.00    +0.000 OA
BRANCH   6   5
ATOM      3  C   UNL     1       9.424  57.555   4.821  0.00  0.00    +0.000 C 
ATOM      4  O   UNL     1       9.167  56.278   5.605  0.00  0.00    +0.000 OA
ATOM      5  C   UNL     1       9.395  56.719   7.071  0.00  0.00    +0.000 C 
ATOM     23  C   UNL     1      11.147  56.451   7.056  0.00  0.00    +0.000 C 
ATOM     24  O   UNL     1      11.133  55.363   6.013  0.00  0.00    +0.000 OA
ATOM     25  C   UNL     1      11.520  57.776   6.012  0.00  0.00    +0.000 C 
ATOM     26  O   UNL     1      12.939  57.251   5.869  0.00  0.00    +0.000 OA
ATOM     27  C   UNL     1      11.060  57.005   4.537  0.00  0.00    +0.000 C 
ATOM     28  O   UNL     1      11.377  58.271   3.783  0.00  0.00    +0.000 OA
BRANCH   3   2
ATOM      1  O   UNL     1       7.950  56.426   3.607  0.00  0.00    +0.000 OA
ATOM      2  C   UNL     1       8.877  56.818   3.428  0.00  0.00    +0.000 C 
ENDBRANCH   3   2
ENDBRANCH   6   5
ENDBRANCH   7   6
TORSDOF 5
ENDMDL
MODEL 4
REMARK VINA RESULT:      -6.9     33.129     37.624
REMARK  Name = 
REMARK  5 active torsions:
REMARK  status: ('A' for Active; 'I' for Inactive)
REMARK    1  A    between atoms: C_2  and  C_3
REMARK    2  A    between atoms: C_5  and  O_6
REMARK    3  A    between atoms: O_6  and  C_7
REMARK    4  A    between atoms: C_10  and  C_11
REMARK    5  A    between atoms: C_12  and  C_13
REMARK                            x       y       z     vdW  Elec       q    Type
REMARK                         _______ _______ _______ _____ _____    ______ ____
ROOT
ATOM      7  C   UNL     1       6.146  54.013  19.334  0.00  0.00    +0.000 A 
ATOM      8  C   UNL     1       5.905  55.234  19.965  0.00  0.00    +0.000 A 
ATOM      9  C   UNL     1       6.543  55.559  21.171  0.00  0.00    +0.000 A 
ATOM     10  C   UNL     1       7.274  54.591  21.858  0.00  0.00    +0.000 A 
ATOM     21  C   UNL     1       7.920  53.748  20.954  0.00  0.00    +0.000 A 
ATOM     22  C   UNL     1       7.417  53.537  19.672  0.00  0.00    +0.000 A 
ENDROOT
BRANCH  10  11
ATOM     11  C   UNL     1       6.867  54.078  23.180  0.00  0.00    +0.000 C 
ATOM     12  C   UNL     1       7.442  54.661  24.209  0.00  0.00    +0.000 C 
BRANCH  12  13
ATOM     13  C   UNL     1       8.902  54.671  24.178  0.00  0.00    +0.000 A 
ATOM     14  C   UNL     1       9.496  55.830  23.711  0.00  0.00    +0.000 A 
ATOM     15  C   UNL     1      10.872  55.959  23.627  0.00  0.00    +0.000 A 
ATOM     16  O   UNL     1      11.391  57.021  22.935  0.00  0.00    +0.000 OA
ATOM     17  C   UNL     1      11.601  54.937  24.181  0.00  0.00    +0.000 A 
ATOM     18  C   UNL     1      11.022  53.926  24.937  0.00  0.00    +0.000 A 
ATOM     19  O   UNL     1      11.774  52.921  25.534  0.00  0.00    +0.000 OA
ATOM     20  C   UNL     1       9.652  53.853  24.989  0.00  0.00    +0.000 A 
ENDBRANCH  12  13
ENDBRANCH  10  11
BRANCH   7   6
ATOM      6  O   UNL     1       5.148  53.173  18.883  0.00  0.00    +0.000 OA
BRANCH   6   5
ATOM      3  C   UNL     1       3.408  52.054  19.184  0.00  0.00    +0.000 C 
ATOM      4  O   UNL     1       4.407  50.951  18.870  0.00  0.00    +0.000 OA
ATOM      5  C   UNL     1       5.676  51.738  18.460  0.00  0.00    +0.000 C 
ATOM     23  C   UNL     1       5.218  51.918  16.757  0.00  0.00    +0.000 C 
ATOM     24  O   UNL     1       4.385  50.664  16.683  0.00  0.00    +0.000 OA
ATOM     25  C   UNL     1       3.933  53.039  17.036  0.00  0.00    +0.000 C 
ATOM     26  O   UNL     1       3.482  52.865  15.596  0.00  0.00    +0.000 OA
ATOM     27  C   UNL     1       2.768  51.881  17.566  0.00  0.00    +0.000 C 
ATOM     28  O   UNL     1       1.782  52.994  17.815  0.00  0.00    +0.000 OA
BRANCH   3   2
ATOM      1  O   UNL     1       2.791  50.425  20.557  0.00  0.00    +0.000 OA
ATOM      2  C   UNL     1       2.340  50.923  19.788  0.00  0.00    +0.000 C 
ENDBRANCH   3   2
ENDBRANCH   6   5
ENDBRANCH   7   6
TORSDOF 5
ENDMDL
MODEL 5
REMARK VINA RESULT:      -6.8     24.435     28.117
REMARK  Name = 
REMARK  5 active torsions:
REMARK  status: ('A' for Active; 'I' for Inactive)
REMARK    1  A    between atoms: C_2  and  C_3
REMARK    2  A    between atoms: C_5  and  O_6
REMARK    3  A    between atoms: O_6  and  C_7
REMARK    4  A    between atoms: C_10  and  C_11
REMARK    5  A    between atoms: C_12  and  C_13
REMARK                            x       y       z     vdW  Elec       q    Type
REMARK                         _______ _______ _______ _____ _____    ______ ____
ROOT
ATOM      7  C   UNL     1       9.005  59.757   6.284  0.00  0.00    +0.000 A 
ATOM      8  C   UNL     1       8.014  59.866   5.308  0.00  0.00    +0.000 A 
ATOM      9  C   UNL     1       6.670  60.048   5.666  0.00  0.00    +0.000 A 
ATOM     10  C   UNL     1       6.278  59.925   6.999  0.00  0.00    +0.000 A 
ATOM     21  C   UNL     1       7.276  60.418   7.838  0.00  0.00    +0.000 A 
ATOM     22  C   UNL     1       8.614  60.426   7.448  0.00  0.00    +0.000 A 
ENDROOT
BRANCH  10  11
ATOM     11  C   UNL     1       5.388  58.846   7.468  0.00  0.00    +0.000 C 
ATOM     12  C   UNL     1       4.106  59.051   7.269  0.00  0.00    +0.000 C 
BRANCH  12  13
ATOM     13  C   UNL     1       3.588  60.305   7.808  0.00  0.00    +0.000 A 
ATOM     14  C   UNL     1       2.617  60.941   7.053  0.00  0.00    +0.000 A 
ATOM     15  C   UNL     1       2.054  62.141   7.454  0.00  0.00    +0.000 A 
ATOM     16  O   UNL     1       1.287  62.839   6.558  0.00  0.00    +0.000 OA
ATOM     17  C   UNL     1       2.400  62.570   8.710  0.00  0.00    +0.000 A 
ATOM     18  C   UNL     1       3.118  61.784   9.602  0.00  0.00    +0.000 A 
ATOM     19  O   UNL     1       3.423  62.210  10.889  0.00  0.00    +0.000 OA
ATOM     20  C   UNL     1       3.646  60.600   9.148  0.00  0.00    +0.000 A 
ENDBRANCH  12  13
ENDBRANCH  10  11
BRANCH   7   6
ATOM      6  O   UNL     1       9.957  58.757   6.302  0.00  0.00    +0.000 OA
BRANCH   6   5
ATOM      3  C   UNL     1      10.950  57.365   7.505  0.00  0.00    +0.000 C 
ATOM      4  O   UNL     1      12.077  58.340   7.205  0.00  0.00    +0.000 OA
ATOM      5  C   UNL     1      11.442  59.297   6.167  0.00  0.00    +0.000 C 
ATOM     23  C   UNL     1      11.827  58.294   4.757  0.00  0.00    +0.000 C 
ATOM     24  O   UNL     1      13.053  57.649   5.351  0.00  0.00    +0.000 OA
ATOM     25  C   UNL     1      10.699  57.037   5.120  0.00  0.00    +0.000 C 
ATOM     26  O   UNL     1      11.334  56.170   4.045  0.00  0.00    +0.000 OA
ATOM     27  C   UNL     1      11.645  56.263   6.338  0.00  0.00    +0.000 C 
ATOM     28  O   UNL     1      10.529  55.278   6.572  0.00  0.00    +0.000 OA
BRANCH   3   2
ATOM      1  O   UNL     1      12.441  57.430   9.145  0.00  0.00    +0.000 OA
ATOM      2  C   UNL     1      11.845  56.702   8.747  0.00  0.00    +0.000 C 
ENDBRANCH   3   2
ENDBRANCH   6   5
ENDBRANCH   7   6
TORSDOF 5
ENDMDL
MODEL 6
REMARK VINA RESULT:      -6.8     35.457     37.916
REMARK  Name = 
REMARK  5 active torsions:
REMARK  status: ('A' for Active; 'I' for Inactive)
REMARK    1  A    between atoms: C_2  and  C_3
REMARK    2  A    between atoms: C_5  and  O_6
REMARK    3  A    between atoms: O_6  and  C_7
REMARK    4  A    between atoms: C_10  and  C_11
REMARK    5  A    between atoms: C_12  and  C_13
REMARK                            x       y       z     vdW  Elec       q    Type
REMARK                         _______ _______ _______ _____ _____    ______ ____
ROOT
ATOM      7  C   UNL     1      24.813  43.556  16.881  0.00  0.00    +0.000 A 
ATOM      8  C   UNL     1      25.488  42.340  16.776  0.00  0.00    +0.000 A 
ATOM      9  C   UNL     1      25.326  41.341  17.747  0.00  0.00    +0.000 A 
ATOM     10  C   UNL     1      24.644  41.621  18.931  0.00  0.00    +0.000 A 
ATOM     21  C   UNL     1      23.592  42.500  18.680  0.00  0.00    +0.000 A 
ATOM     22  C   UNL     1      23.630  43.391  17.609  0.00  0.00    +0.000 A 
ENDROOT
BRANCH  10  11
ATOM     11  C   UNL     1      25.309  41.624  20.248  0.00  0.00    +0.000 C 
ATOM     12  C   UNL     1      25.986  40.536  20.537  0.00  0.00    +0.000 C 
BRANCH  12  13
ATOM     13  C   UNL     1      25.230  39.291  20.435  0.00  0.00    +0.000 A 
ATOM     14  C   UNL     1      25.759  38.320  19.603  0.00  0.00    +0.000 A 
ATOM     15  C   UNL     1      25.131  37.100  19.417  0.00  0.00    +0.000 A 
ATOM     16  O   UNL     1      25.564  36.285  18.405  0.00  0.00    +0.000 OA
ATOM     17  C   UNL     1      24.051  36.857  20.227  0.00  0.00    +0.000 A 
ATOM     18  C   UNL     1      23.705  37.686  21.287  0.00  0.00    +0.000 A 
ATOM     19  O   UNL     1      22.637  37.407  22.131  0.00  0.00    +0.000 OA
ATOM     20  C   UNL     1      24.368  38.880  21.424  0.00  0.00    +0.000 A 
ENDBRANCH  12  13
ENDBRANCH  10  11
BRANCH   7   6
ATOM      6  O   UNL     1      25.424  44.788  16.752  0.00  0.00    +0.000 OA
BRANCH   6   5
ATOM      3  C   UNL     1      26.922  46.075  17.434  0.00  0.00    +0.000 C 
ATOM      4  O   UNL     1      25.676  46.812  17.901  0.00  0.00    +0.000 OA
ATOM      5  C   UNL     1      24.529  45.993  17.263  0.00  0.00    +0.000 C 
ATOM     23  C   UNL     1      24.552  46.850  15.712  0.00  0.00    +0.000 C 
ATOM     24  O   UNL     1      25.069  48.156  16.260  0.00  0.00    +0.000 OA
ATOM     25  C   UNL     1      26.063  46.206  15.175  0.00  0.00    +0.000 C 
ATOM     26  O   UNL     1      26.078  47.213  14.038  0.00  0.00    +0.000 OA
ATOM     27  C   UNL     1      27.070  47.232  16.130  0.00  0.00    +0.000 C 
ATOM     28  O   UNL     1      28.288  46.515  15.606  0.00  0.00    +0.000 OA
BRANCH   3   2
ATOM      1  O   UNL     1      27.307  47.272  19.262  0.00  0.00    +0.000 OA
ATOM      2  C   UNL     1      27.863  47.012  18.445  0.00  0.00    +0.000 C 
ENDBRANCH   3   2
ENDBRANCH   6   5
ENDBRANCH   7   6
TORSDOF 5
ENDMDL
MODEL 7
REMARK VINA RESULT:      -6.8     23.169     27.400
REMARK  Name = 
REMARK  5 active torsions:
REMARK  status: ('A' for Active; 'I' for Inactive)
REMARK    1  A    between atoms: C_2  and  C_3
REMARK    2  A    between atoms: C_5  and  O_6
REMARK    3  A    between atoms: O_6  and  C_7
REMARK    4  A    between atoms: C_10  and  C_11
REMARK    5  A    between atoms: C_12  and  C_13
REMARK                            x       y       z     vdW  Elec       q    Type
REMARK                         _______ _______ _______ _____ _____    ______ ____
ROOT
ATOM      7  C   UNL     1      25.894  58.868  -5.210  0.00  0.00    +0.000 A 
ATOM      8  C   UNL     1      27.177  59.072  -4.700  0.00  0.00    +0.000 A 
ATOM      9  C   UNL     1      28.260  59.319  -5.555  0.00  0.00    +0.000 A 
ATOM     10  C   UNL     1      28.111  59.168  -6.934  0.00  0.00    +0.000 A 
ATOM     21  C   UNL     1      26.834  59.571  -7.323  0.00  0.00    +0.000 A 
ATOM     22  C   UNL     1      25.756  59.516  -6.443  0.00  0.00    +0.000 A 
ENDROOT
BRANCH  10  11
ATOM     11  C   UNL     1      28.821  58.127  -7.700  0.00  0.00    +0.000 C 
ATOM     12  C   UNL     1      30.128  58.127  -7.570  0.00  0.00    +0.000 C 
BRANCH  12  13
ATOM     13  C   UNL     1      30.779  59.401  -7.864  0.00  0.00    +0.000 A 
ATOM     14  C   UNL     1      31.732  59.825  -6.953  0.00  0.00    +0.000 A 
ATOM     15  C   UNL     1      32.412  61.020  -7.117  0.00  0.00    +0.000 A 
ATOM     16  O   UNL     1      33.155  61.502  -6.071  0.00  0.00    +0.000 OA
ATOM     17  C   UNL     1      32.201  61.667  -8.308  0.00  0.00    +0.000 A 
ATOM     18  C   UNL     1      31.500  61.093  -9.361  0.00  0.00    +0.000 A 
ATOM     19  O   UNL     1      31.331  61.738 -10.581  0.00  0.00    +0.000 OA
ATOM     20  C   UNL     1      30.850  59.904  -9.140  0.00  0.00    +0.000 A 
ENDBRANCH  12  13
ENDBRANCH  10  11
BRANCH   7   6
ATOM      6  O   UNL     1      25.081  57.815  -4.844  0.00  0.00    +0.000 OA
BRANCH   6   5
ATOM      3  C   UNL     1      24.950  55.902  -5.675  0.00  0.00    +0.000 C 
ATOM      4  O   UNL     1      23.670  56.532  -6.203  0.00  0.00    +0.000 OA
ATOM      5  C   UNL     1      23.626  57.894  -5.469  0.00  0.00    +0.000 C 
ATOM     23  C   UNL     1      22.816  57.277  -4.019  0.00  0.00    +0.000 C 
ATOM     24  O   UNL     1      22.095  56.146  -4.708  0.00  0.00    +0.000 OA
ATOM     25  C   UNL     1      24.167  56.372  -3.433  0.00  0.00    +0.000 C 
ATOM     26  O   UNL     1      23.264  55.705  -2.409  0.00  0.00    +0.000 OA
ATOM     27  C   UNL     1      23.989  55.029  -4.503  0.00  0.00    +0.000 C 
ATOM     28  O   UNL     1      25.230  54.406  -3.918  0.00  0.00    +0.000 OA
BRANCH   3   2
ATOM      1  O   UNL     1      24.889  55.064  -7.728  0.00  0.00    +0.000 OA
ATOM      2  C   UNL     1      24.810  54.668  -6.789  0.00  0.00    +0.000 C 
ENDBRANCH   3   2
ENDBRANCH   6   5
ENDBRANCH   7   6
TORSDOF 5
ENDMDL
MODEL 8
REMARK VINA RESULT:      -6.5     33.295     37.718
REMARK  Name = 
REMARK  5 active torsions:
REMARK  status: ('A' for Active; 'I' for Inactive)
REMARK    1  A    between atoms: C_2  and  C_3
REMARK    2  A    between atoms: C_5  and  O_6
REMARK    3  A    between atoms: O_6  and  C_7
REMARK    4  A    between atoms: C_10  and  C_11
REMARK    5  A    between atoms: C_12  and  C_13
REMARK                            x       y       z     vdW  Elec       q    Type
REMARK                         _______ _______ _______ _____ _____    ______ ____
ROOT
ATOM      7  C   UNL     1       6.235  52.509  19.650  0.00  0.00    +0.000 A 
ATOM      8  C   UNL     1       6.833  53.768  19.703  0.00  0.00    +0.000 A 
ATOM      9  C   UNL     1       7.612  54.149  20.805  0.00  0.00    +0.000 A 
ATOM     10  C   UNL     1       7.639  53.354  21.951  0.00  0.00    +0.000 A 
ATOM     21  C   UNL     1       7.576  52.006  21.598  0.00  0.00    +0.000 A 
ATOM     22  C   UNL     1       6.968  51.594  20.414  0.00  0.00    +0.000 A 
ENDROOT
BRANCH  10  11
ATOM     11  C   UNL     1       7.090  53.804  23.243  0.00  0.00    +0.000 C 
ATOM     12  C   UNL     1       7.634  54.894  23.735  0.00  0.00    +0.000 C 
BRANCH  12  13
ATOM     13  C   UNL     1       9.087  54.853  23.873  0.00  0.00    +0.000 A 
ATOM     14  C   UNL     1       9.768  56.004  23.517  0.00  0.00    +0.000 A 
ATOM     15  C   UNL     1      11.148  56.085  23.595  0.00  0.00    +0.000 A 
ATOM     16  O   UNL     1      11.778  57.149  23.005  0.00  0.00    +0.000 OA
ATOM     17  C   UNL     1      11.774  55.022  24.195  0.00  0.00    +0.000 A 
ATOM     18  C   UNL     1      11.080  54.009  24.844  0.00  0.00    +0.000 A 
ATOM     19  O   UNL     1      11.725  52.960  25.489  0.00  0.00    +0.000 OA
ATOM     20  C   UNL     1       9.711  53.984  24.736  0.00  0.00    +0.000 A 
ENDBRANCH  12  13
ENDBRANCH  10  11
BRANCH   7   6
ATOM      6  O   UNL     1       4.905  52.302  19.342  0.00  0.00    +0.000 OA
BRANCH   6   5
ATOM      3  C   UNL     1       3.701  51.562  17.803  0.00  0.00    +0.000 C 
ATOM      4  O   UNL     1       3.408  53.051  17.706  0.00  0.00    +0.000 OA
ATOM      5  C   UNL     1       4.137  53.630  18.942  0.00  0.00    +0.000 C 
ATOM     23  C   UNL     1       2.795  53.359  20.069  0.00  0.00    +0.000 C 
ATOM     24  O   UNL     1       1.699  53.462  19.039  0.00  0.00    +0.000 OA
ATOM     25  C   UNL     1       2.932  51.636  20.097  0.00  0.00    +0.000 C 
ATOM     26  O   UNL     1       1.602  51.552  20.825  0.00  0.00    +0.000 OA
ATOM     27  C   UNL     1       2.151  51.349  18.584  0.00  0.00    +0.000 C 
ATOM     28  O   UNL     1       2.409  49.872  18.739  0.00  0.00    +0.000 OA
BRANCH   3   2
ATOM      1  O   UNL     1       3.765  51.002  15.657  0.00  0.00    +0.000 OA
ATOM      2  C   UNL     1       3.032  51.326  16.292  0.00  0.00    +0.000 C 
ENDBRANCH   3   2
ENDBRANCH   6   5
ENDBRANCH   7   6
TORSDOF 5
ENDMDL
MODEL 9
REMARK VINA RESULT:      -6.4     18.152     21.516
REMARK  Name = 
REMARK  5 active torsions:
REMARK  status: ('A' for Active; 'I' for Inactive)
REMARK    1  A    between atoms: C_2  and  C_3
REMARK    2  A    between atoms: C_5  and  O_6
REMARK    3  A    between atoms: O_6  and  C_7
REMARK    4  A    between atoms: C_10  and  C_11
REMARK    5  A    between atoms: C_12  and  C_13
REMARK                            x       y       z     vdW  Elec       q    Type
REMARK                         _______ _______ _______ _____ _____    ______ ____
ROOT
ATOM      7  C   UNL     1      17.033  58.851 -23.318  0.00  0.00    +0.000 A 
ATOM      8  C   UNL     1      16.072  57.892 -22.998  0.00  0.00    +0.000 A 
ATOM      9  C   UNL     1      15.790  57.573 -21.662  0.00  0.00    +0.000 A 
ATOM     10  C   UNL     1      16.603  58.065 -20.639  0.00  0.00    +0.000 A 
ATOM     21  C   UNL     1      17.039  59.351 -20.953  0.00  0.00    +0.000 A 
ATOM     22  C   UNL     1      17.160  59.775 -22.275  0.00  0.00    +0.000 A 
ENDROOT
BRANCH  10  11
ATOM     11  C   UNL     1      17.439  57.187 -19.799  0.00  0.00    +0.000 C 
ATOM     12  C   UNL     1      17.084  57.115 -18.536  0.00  0.00    +0.000 C 
BRANCH  12  13
ATOM     13  C   UNL     1      16.975  58.399 -17.849  0.00  0.00    +0.000 A 
ATOM     14  C   UNL     1      15.865  58.568 -17.040  0.00  0.00    +0.000 A 
ATOM     15  C   UNL     1      15.646  59.744 -16.342  0.00  0.00    +0.000 A 
ATOM     16  O   UNL     1      14.422  59.944 -15.760  0.00  0.00    +0.000 OA
ATOM     17  C   UNL     1      16.670  60.656 -16.377  0.00  0.00    +0.000 A 
ATOM     18  C   UNL     1      17.916  60.367 -16.918  0.00  0.00    +0.000 A 
ATOM     19  O   UNL     1      18.962  61.282 -16.907  0.00  0.00    +0.000 OA
ATOM     20  C   UNL     1      18.075  59.182 -17.593  0.00  0.00    +0.000 A 
ENDBRANCH  12  13
ENDBRANCH  10  11
BRANCH   7   6
ATOM      6  O   UNL     1      18.039  58.652 -24.242  0.00  0.00    +0.000 OA
BRANCH   6   5
ATOM      3  C   UNL     1      18.821  58.497 -26.174  0.00  0.00    +0.000 C 
ATOM      4  O   UNL     1      19.106  57.103 -25.637  0.00  0.00    +0.000 OA
ATOM      5  C   UNL     1      18.709  57.218 -24.145  0.00  0.00    +0.000 C 
ATOM     23  C   UNL     1      20.279  57.835 -23.601  0.00  0.00    +0.000 C 
ATOM     24  O   UNL     1      21.094  57.172 -24.683  0.00  0.00    +0.000 OA
ATOM     25  C   UNL     1      20.125  59.389 -24.340  0.00  0.00    +0.000 C 
ATOM     26  O   UNL     1      21.591  59.662 -24.050  0.00  0.00    +0.000 OA
ATOM     27  C   UNL     1      20.511  58.887 -25.946  0.00  0.00    +0.000 C 
ATOM     28  O   UNL     1      20.274  60.293 -26.436  0.00  0.00    +0.000 OA
BRANCH   3   2
ATOM      1  O   UNL     1      18.238  57.546 -28.091  0.00  0.00    +0.000 OA
ATOM      2  C   UNL     1      19.098  57.962 -27.730  0.00  0.00    +0.000 C 
ENDBRANCH   3   2
ENDBRANCH   6   5
ENDBRANCH   7   6
TORSDOF 5
ENDMDL
MODEL 10
REMARK VINA RESULT:      -6.3     24.987     28.521
REMARK  Name = 
REMARK  5 active torsions:
REMARK  status: ('A' for Active; 'I' for Inactive)
REMARK    1  A    between atoms: C_2  and  C_3
REMARK    2  A    between atoms: C_5  and  O_6
REMARK    3  A    between atoms: O_6  and  C_7
REMARK    4  A    between atoms: C_10  and  C_11
REMARK    5  A    between atoms: C_12  and  C_13
REMARK                            x       y       z     vdW  Elec       q    Type
REMARK                         _______ _______ _______ _____ _____    ______ ____
ROOT
ATOM      7  C   UNL     1      30.388  59.868  -7.273  0.00  0.00    +0.000 A 
ATOM      8  C   UNL     1      29.021  60.146  -7.289  0.00  0.00    +0.000 A 
ATOM      9  C   UNL     1      28.077  59.110  -7.314  0.00  0.00    +0.000 A 
ATOM     10  C   UNL     1      28.488  57.793  -7.522  0.00  0.00    +0.000 A 
ATOM     21  C   UNL     1      29.720  57.574  -6.905  0.00  0.00    +0.000 A 
ATOM     22  C   UNL     1      30.621  58.616  -6.693  0.00  0.00    +0.000 A 
ENDROOT
BRANCH  10  11
ATOM     11  C   UNL     1      28.123  57.028  -8.729  0.00  0.00    +0.000 C 
ATOM     12  C   UNL     1      26.930  56.478  -8.704  0.00  0.00    +0.000 C 
BRANCH  12  13
ATOM     13  C   UNL     1      26.667  55.621  -7.552  0.00  0.00    +0.000 A 
ATOM     14  C   UNL     1      25.411  55.732  -6.980  0.00  0.00    +0.000 A 
ATOM     15  C   UNL     1      25.045  54.979  -5.878  0.00  0.00    +0.000 A 
ATOM     16  O   UNL     1      23.892  55.304  -5.213  0.00  0.00    +0.000 OA
ATOM     17  C   UNL     1      25.939  54.011  -5.495  0.00  0.00    +0.000 A 
ATOM     18  C   UNL     1      27.053  53.674  -6.252  0.00  0.00    +0.000 A 
ATOM     19  O   UNL     1      27.927  52.660  -5.879  0.00  0.00    +0.000 OA
ATOM     20  C   UNL     1      27.362  54.455  -7.339  0.00  0.00    +0.000 A 
ENDBRANCH  12  13
ENDBRANCH  10  11
BRANCH   7   6
ATOM      6  O   UNL     1      31.302  60.459  -8.123  0.00  0.00    +0.000 OA
BRANCH   6   5
ATOM      3  C   UNL     1      32.068  62.264  -8.847  0.00  0.00    +0.000 C 
ATOM      4  O   UNL     1      31.357  61.737 -10.084  0.00  0.00    +0.000 OA
ATOM      5  C   UNL     1      30.923  60.314  -9.656  0.00  0.00    +0.000 C 
ATOM     23  C   UNL     1      32.450  59.533 -10.103  0.00  0.00    +0.000 C 
ATOM     24  O   UNL     1      32.815  60.508 -11.193  0.00  0.00    +0.000 OA
ATOM     25  C   UNL     1      33.388  60.235  -8.833  0.00  0.00    +0.000 C 
ATOM     26  O   UNL     1      34.655  59.731  -9.503  0.00  0.00    +0.000 OA
ATOM     27  C   UNL     1      33.588  61.785  -9.566  0.00  0.00    +0.000 C 
ATOM     28  O   UNL     1      34.337  62.258  -8.347  0.00  0.00    +0.000 OA
BRANCH   3   2
ATOM      1  O   UNL     1      31.448  64.378  -9.106  0.00  0.00    +0.000 OA
ATOM      2  C   UNL     1      32.157  63.781  -9.537  0.00  0.00    +0.000 C 
ENDBRANCH   3   2
ENDBRANCH   6   5
ENDBRANCH   7   6
TORSDOF 5
ENDMDL
