MODEL 1
REMARK VINA RESULT:      -5.8      0.000      0.000
REMARK  Name = 
REMARK  3 active torsions:
REMARK  status: ('A' for Active; 'I' for Inactive)
REMARK    1  A    between atoms: O_2  and  C_3
REMARK    2  A    between atoms: C_6  and  C_7
REMARK    3  A    between atoms: C_8  and  C_9
REMARK                            x       y       z     vdW  Elec       q    Type
REMARK                         _______ _______ _______ _____ _____    ______ ____
ROOT
ATOM      7  C   UNL     1      20.347  71.095  13.903  0.00  0.00    +0.000 C 
ATOM      8  C   UNL     1      20.508  71.096  15.203  0.00  0.00    +0.000 C 
ENDROOT
BRANCH   8   9
ATOM      9  C   UNL     1      21.668  71.684  15.885  0.00  0.00    +0.000 A 
ATOM     10  C   UNL     1      22.266  72.850  15.421  0.00  0.00    +0.000 A 
ATOM     11  C   UNL     1      23.613  73.080  15.470  0.00  0.00    +0.000 A 
ATOM     12  O   UNL     1      24.185  74.102  14.733  0.00  0.00    +0.000 OA
ATOM     13  C   UNL     1      24.382  72.292  16.317  0.00  0.00    +0.000 A 
ATOM     14  C   UNL     1      23.824  71.146  16.813  0.00  0.00    +0.000 A 
ATOM     15  O   UNL     1      24.505  70.485  17.836  0.00  0.00    +0.000 OA
ATOM     16  C   UNL     1      22.544  70.757  16.442  0.00  0.00    +0.000 A 
ENDBRANCH   8   9
BRANCH   7   6
ATOM      3  C   UNL     1      17.549  68.418  12.496  0.00  0.00    +0.000 A 
ATOM      4  C   UNL     1      18.449  67.993  13.442  0.00  0.00    +0.000 A 
ATOM      5  C   UNL     1      19.482  68.815  13.870  0.00  0.00    +0.000 A 
ATOM      6  C   UNL     1      19.818  69.952  13.148  0.00  0.00    +0.000 A 
ATOM     17  C   UNL     1      19.154  70.117  11.939  0.00  0.00    +0.000 A 
ATOM     18  C   UNL     1      17.980  69.431  11.651  0.00  0.00    +0.000 A 
BRANCH   3   2
ATOM      1  C   UNL     1      15.618  66.899  12.616  0.00  0.00    +0.000 C 
ATOM      2  O   UNL     1      16.173  68.194  12.589  0.00  0.00    +0.000 OA
ENDBRANCH   3   2
ENDBRANCH   7   6
TORSDOF 3
ENDMDL
MODEL 2
REMARK VINA RESULT:      -5.7     27.964     29.966
REMARK  Name = 
REMARK  3 active torsions:
REMARK  status: ('A' for Active; 'I' for Inactive)
REMARK    1  A    between atoms: O_2  and  C_3
REMARK    2  A    between atoms: C_6  and  C_7
REMARK    3  A    between atoms: C_8  and  C_9
REMARK                            x       y       z     vdW  Elec       q    Type
REMARK                         _______ _______ _______ _____ _____    ______ ____
ROOT
ATOM      7  C   UNL     1      30.832  79.205 -12.175  0.00  0.00    +0.000 C 
ATOM      8  C   UNL     1      29.918  79.296 -11.242  0.00  0.00    +0.000 C 
ENDROOT
BRANCH   8   9
ATOM      9  C   UNL     1      28.607  79.928 -11.436  0.00  0.00    +0.000 A 
ATOM     10  C   UNL     1      27.726  80.109 -10.376  0.00  0.00    +0.000 A 
ATOM     11  C   UNL     1      26.368  79.995 -10.494  0.00  0.00    +0.000 A 
ATOM     12  O   UNL     1      25.566  79.883  -9.373  0.00  0.00    +0.000 OA
ATOM     13  C   UNL     1      25.814  80.046 -11.768  0.00  0.00    +0.000 A 
ATOM     14  C   UNL     1      26.650  79.894 -12.840  0.00  0.00    +0.000 A 
ATOM     15  O   UNL     1      26.136  80.177 -14.106  0.00  0.00    +0.000 OA
ATOM     16  C   UNL     1      28.005  79.647 -12.659  0.00  0.00    +0.000 A 
ENDBRANCH   8   9
BRANCH   7   6
ATOM      3  C   UNL     1      34.755  78.187 -11.434  0.00  0.00    +0.000 A 
ATOM      4  C   UNL     1      34.014  78.741 -10.418  0.00  0.00    +0.000 A 
ATOM      5  C   UNL     1      32.727  79.206 -10.640  0.00  0.00    +0.000 A 
ATOM      6  C   UNL     1      32.267  79.405 -11.934  0.00  0.00    +0.000 A 
ATOM     17  C   UNL     1      33.209  79.240 -12.942  0.00  0.00    +0.000 A 
ATOM     18  C   UNL     1      34.399  78.556 -12.723  0.00  0.00    +0.000 A 
BRANCH   3   2
ATOM      1  C   UNL     1      36.775  77.040 -10.625  0.00  0.00    +0.000 C 
ATOM      2  O   UNL     1      35.527  77.033 -11.280  0.00  0.00    +0.000 OA
ENDBRANCH   3   2
ENDBRANCH   7   6
TORSDOF 3
ENDMDL
MODEL 3
REMARK VINA RESULT:      -5.6      1.548      7.508
REMARK  Name = 
REMARK  3 active torsions:
REMARK  status: ('A' for Active; 'I' for Inactive)
REMARK    1  A    between atoms: O_2  and  C_3
REMARK    2  A    between atoms: C_6  and  C_7
REMARK    3  A    between atoms: C_8  and  C_9
REMARK                            x       y       z     vdW  Elec       q    Type
REMARK                         _______ _______ _______ _____ _____    ______ ____
ROOT
ATOM      7  C   UNL     1      20.013  70.748  13.600  0.00  0.00    +0.000 C 
ATOM      8  C   UNL     1      19.692  70.008  12.568  0.00  0.00    +0.000 C 
ENDROOT
BRANCH   8   9
ATOM      9  C   UNL     1      18.516  69.130  12.522  0.00  0.00    +0.000 A 
ATOM     10  C   UNL     1      18.457  67.959  13.269  0.00  0.00    +0.000 A 
ATOM     11  C   UNL     1      17.859  66.811  12.827  0.00  0.00    +0.000 A 
ATOM     12  O   UNL     1      18.087  65.604  13.464  0.00  0.00    +0.000 OA
ATOM     13  C   UNL     1      16.979  66.900  11.756  0.00  0.00    +0.000 A 
ATOM     14  C   UNL     1      16.990  68.045  11.007  0.00  0.00    +0.000 A 
ATOM     15  O   UNL     1      15.957  68.227  10.088  0.00  0.00    +0.000 OA
ATOM     16  C   UNL     1      17.889  69.068  11.281  0.00  0.00    +0.000 A 
ENDBRANCH   8   9
BRANCH   7   6
ATOM      3  C   UNL     1      23.070  71.329  16.300  0.00  0.00    +0.000 A 
ATOM      4  C   UNL     1      22.700  72.373  15.488  0.00  0.00    +0.000 A 
ATOM      5  C   UNL     1      21.756  72.204  14.486  0.00  0.00    +0.000 A 
ATOM      6  C   UNL     1      21.390  70.930  14.077  0.00  0.00    +0.000 A 
ATOM     17  C   UNL     1      22.117  69.885  14.634  0.00  0.00    +0.000 A 
ATOM     18  C   UNL     1      22.873  70.055  15.787  0.00  0.00    +0.000 A 
BRANCH   3   2
ATOM      1  C   UNL     1      22.798  70.467  18.588  0.00  0.00    +0.000 C 
ATOM      2  O   UNL     1      23.239  71.452  17.681  0.00  0.00    +0.000 OA
ENDBRANCH   3   2
ENDBRANCH   7   6
TORSDOF 3
ENDMDL
MODEL 4
REMARK VINA RESULT:      -5.6      1.743      7.430
REMARK  Name = 
REMARK  3 active torsions:
REMARK  status: ('A' for Active; 'I' for Inactive)
REMARK    1  A    between atoms: O_2  and  C_3
REMARK    2  A    between atoms: C_6  and  C_7
REMARK    3  A    between atoms: C_8  and  C_9
REMARK                            x       y       z     vdW  Elec       q    Type
REMARK                         _______ _______ _______ _____ _____    ______ ____
ROOT
ATOM      7  C   UNL     1      19.646  69.862  13.458  0.00  0.00    +0.000 C 
ATOM      8  C   UNL     1      19.138  69.859  12.251  0.00  0.00    +0.000 C 
ENDROOT
BRANCH   8   9
ATOM      9  C   UNL     1      18.633  68.656  11.578  0.00  0.00    +0.000 A 
ATOM     10  C   UNL     1      17.574  68.720  10.679  0.00  0.00    +0.000 A 
ATOM     11  C   UNL     1      16.621  67.746  10.563  0.00  0.00    +0.000 A 
ATOM     12  O   UNL     1      15.439  67.988   9.886  0.00  0.00    +0.000 OA
ATOM     13  C   UNL     1      16.894  66.494  11.102  0.00  0.00    +0.000 A 
ATOM     14  C   UNL     1      17.941  66.383  11.974  0.00  0.00    +0.000 A 
ATOM     15  O   UNL     1      18.356  65.099  12.328  0.00  0.00    +0.000 OA
ATOM     16  C   UNL     1      18.679  67.499  12.349  0.00  0.00    +0.000 A 
ENDBRANCH   8   9
BRANCH   7   6
ATOM      3  C   UNL     1      22.684  71.251  15.871  0.00  0.00    +0.000 A 
ATOM      4  C   UNL     1      21.618  72.078  15.612  0.00  0.00    +0.000 A 
ATOM      5  C   UNL     1      20.623  71.707  14.719  0.00  0.00    +0.000 A 
ATOM      6  C   UNL     1      20.825  70.649  13.845  0.00  0.00    +0.000 A 
ATOM     17  C   UNL     1      22.103  70.104  13.842  0.00  0.00    +0.000 A 
ATOM     18  C   UNL     1      22.991  70.322  14.889  0.00  0.00    +0.000 A 
BRANCH   3   2
ATOM      1  C   UNL     1      22.601  70.108  18.048  0.00  0.00    +0.000 C 
ATOM      2  O   UNL     1      23.188  71.028  17.155  0.00  0.00    +0.000 OA
ENDBRANCH   3   2
ENDBRANCH   7   6
TORSDOF 3
ENDMDL
MODEL 5
REMARK VINA RESULT:      -5.5     28.462     30.035
REMARK  Name = 
REMARK  3 active torsions:
REMARK  status: ('A' for Active; 'I' for Inactive)
REMARK    1  A    between atoms: O_2  and  C_3
REMARK    2  A    between atoms: C_6  and  C_7
REMARK    3  A    between atoms: C_8  and  C_9
REMARK                            x       y       z     vdW  Elec       q    Type
REMARK                         _______ _______ _______ _____ _____    ______ ____
ROOT
ATOM      7  C   UNL     1      33.196  60.517 -10.258  0.00  0.00    +0.000 C 
ATOM      8  C   UNL     1      32.238  61.381 -10.028  0.00  0.00    +0.000 C 
ENDROOT
BRANCH   8   9
ATOM      9  C   UNL     1      31.064  61.099  -9.193  0.00  0.00    +0.000 A 
ATOM     10  C   UNL     1      30.941  61.630  -7.914  0.00  0.00    +0.000 A 
ATOM     11  C   UNL     1      30.372  60.956  -6.868  0.00  0.00    +0.000 A 
ATOM     12  O   UNL     1      30.543  61.393  -5.567  0.00  0.00    +0.000 OA
ATOM     13  C   UNL     1      29.577  59.852  -7.154  0.00  0.00    +0.000 A 
ATOM     14  C   UNL     1      29.652  59.313  -8.409  0.00  0.00    +0.000 A 
ATOM     15  O   UNL     1      28.693  58.363  -8.762  0.00  0.00    +0.000 OA
ATOM     16  C   UNL     1      30.533  59.823  -9.353  0.00  0.00    +0.000 A 
ENDBRANCH   8   9
BRANCH   7   6
ATOM      3  C   UNL     1      35.973  59.192 -12.998  0.00  0.00    +0.000 A 
ATOM      4  C   UNL     1      36.000  60.512 -12.618  0.00  0.00    +0.000 A 
ATOM      5  C   UNL     1      35.023  61.039 -11.787  0.00  0.00    +0.000 A 
ATOM      6  C   UNL     1      33.842  60.345 -11.566  0.00  0.00    +0.000 A 
ATOM     17  C   UNL     1      33.668  59.194 -12.324  0.00  0.00    +0.000 A 
ATOM     18  C   UNL     1      34.736  58.567 -12.955  0.00  0.00    +0.000 A 
BRANCH   3   2
ATOM      1  C   UNL     1      37.345  57.449 -14.062  0.00  0.00    +0.000 C 
ATOM      2  O   UNL     1      37.109  58.379 -13.029  0.00  0.00    +0.000 OA
ENDBRANCH   3   2
ENDBRANCH   7   6
TORSDOF 3
ENDMDL
MODEL 6
REMARK VINA RESULT:      -5.5     27.695     29.825
REMARK  Name = 
REMARK  3 active torsions:
REMARK  status: ('A' for Active; 'I' for Inactive)
REMARK    1  A    between atoms: O_2  and  C_3
REMARK    2  A    between atoms: C_6  and  C_7
REMARK    3  A    between atoms: C_8  and  C_9
REMARK                            x       y       z     vdW  Elec       q    Type
REMARK                         _______ _______ _______ _____ _____    ______ ____
ROOT
ATOM      7  C   UNL     1      29.519  79.571 -10.695  0.00  0.00    +0.000 C 
ATOM      8  C   UNL     1      28.909  80.498 -11.391  0.00  0.00    +0.000 C 
ENDROOT
BRANCH   8   9
ATOM      9  C   UNL     1      27.464  80.508 -11.653  0.00  0.00    +0.000 A 
ATOM     10  C   UNL     1      26.544  80.244 -10.644  0.00  0.00    +0.000 A 
ATOM     11  C   UNL     1      25.378  79.559 -10.846  0.00  0.00    +0.000 A 
ATOM     12  O   UNL     1      24.653  79.062  -9.777  0.00  0.00    +0.000 OA
ATOM     13  C   UNL     1      24.917  79.420 -12.150  0.00  0.00    +0.000 A 
ATOM     14  C   UNL     1      25.784  79.692 -13.172  0.00  0.00    +0.000 A 
ATOM     15  O   UNL     1      25.257  79.778 -14.461  0.00  0.00    +0.000 OA
ATOM     16  C   UNL     1      27.101  80.048 -12.914  0.00  0.00    +0.000 A 
ENDBRANCH   8   9
BRANCH   7   6
ATOM      3  C   UNL     1      33.583  79.491 -11.370  0.00  0.00    +0.000 A 
ATOM      4  C   UNL     1      32.735  79.467 -12.451  0.00  0.00    +0.000 A 
ATOM      5  C   UNL     1      31.361  79.379 -12.282  0.00  0.00    +0.000 A 
ATOM      6  C   UNL     1      30.828  79.009 -11.056  0.00  0.00    +0.000 A 
ATOM     17  C   UNL     1      31.748  78.616 -10.091  0.00  0.00    +0.000 A 
ATOM     18  C   UNL     1      33.096  78.935 -10.196  0.00  0.00    +0.000 A 
BRANCH   3   2
ATOM      1  C   UNL     1      35.286  80.934 -12.405  0.00  0.00    +0.000 C 
ATOM      2  O   UNL     1      34.679  80.353 -11.273  0.00  0.00    +0.000 OA
ENDBRANCH   3   2
ENDBRANCH   7   6
TORSDOF 3
ENDMDL
MODEL 7
REMARK VINA RESULT:      -5.5     25.553     27.376
REMARK  Name = 
REMARK  3 active torsions:
REMARK  status: ('A' for Active; 'I' for Inactive)
REMARK    1  A    between atoms: O_2  and  C_3
REMARK    2  A    between atoms: C_6  and  C_7
REMARK    3  A    between atoms: C_8  and  C_9
REMARK                            x       y       z     vdW  Elec       q    Type
REMARK                         _______ _______ _______ _____ _____    ______ ____
ROOT
ATOM      7  C   UNL     1      24.397  43.392  17.855  0.00  0.00    +0.000 C 
ATOM      8  C   UNL     1      23.859  44.561  17.608  0.00  0.00    +0.000 C 
ENDROOT
BRANCH   8   9
ATOM      9  C   UNL     1      24.623  45.742  17.186  0.00  0.00    +0.000 A 
ATOM     10  C   UNL     1      24.659  46.143  15.856  0.00  0.00    +0.000 A 
ATOM     11  C   UNL     1      25.766  46.680  15.258  0.00  0.00    +0.000 A 
ATOM     12  O   UNL     1      25.850  46.779  13.880  0.00  0.00    +0.000 OA
ATOM     13  C   UNL     1      26.780  47.167  16.073  0.00  0.00    +0.000 A 
ATOM     14  C   UNL     1      26.769  46.814  17.395  0.00  0.00    +0.000 A 
ATOM     15  O   UNL     1      27.643  47.485  18.251  0.00  0.00    +0.000 OA
ATOM     16  C   UNL     1      25.801  45.953  17.895  0.00  0.00    +0.000 A 
ENDBRANCH   8   9
BRANCH   7   6
ATOM      3  C   UNL     1      24.674  41.471  21.489  0.00  0.00    +0.000 A 
ATOM      4  C   UNL     1      24.829  40.734  20.341  0.00  0.00    +0.000 A 
ATOM      5  C   UNL     1      24.635  41.304  19.091  0.00  0.00    +0.000 A 
ATOM      6  C   UNL     1      23.992  42.527  18.971  0.00  0.00    +0.000 A 
ATOM     17  C   UNL     1      23.457  43.046  20.144  0.00  0.00    +0.000 A 
ATOM     18  C   UNL     1      23.862  42.592  21.393  0.00  0.00    +0.000 A 
BRANCH   3   2
ATOM      1  C   UNL     1      26.686  42.229  22.683  0.00  0.00    +0.000 C 
ATOM      2  O   UNL     1      25.553  41.399  22.573  0.00  0.00    +0.000 OA
ENDBRANCH   3   2
ENDBRANCH   7   6
TORSDOF 3
ENDMDL
MODEL 8
REMARK VINA RESULT:      -5.5     29.060     30.453
REMARK  Name = 
REMARK  3 active torsions:
REMARK  status: ('A' for Active; 'I' for Inactive)
REMARK    1  A    between atoms: O_2  and  C_3
REMARK    2  A    between atoms: C_6  and  C_7
REMARK    3  A    between atoms: C_8  and  C_9
REMARK                            x       y       z     vdW  Elec       q    Type
REMARK                         _______ _______ _______ _____ _____    ______ ____
ROOT
ATOM      7  C   UNL     1      28.148  79.602 -11.731  0.00  0.00    +0.000 C 
ATOM      8  C   UNL     1      29.175  79.255 -12.467  0.00  0.00    +0.000 C 
ENDROOT
BRANCH   8   9
ATOM      9  C   UNL     1      30.567  79.287 -11.999  0.00  0.00    +0.000 A 
ATOM     10  C   UNL     1      30.976  80.170 -11.006  0.00  0.00    +0.000 A 
ATOM     11  C   UNL     1      32.202  80.776 -10.993  0.00  0.00    +0.000 A 
ATOM     12  O   UNL     1      32.447  81.861 -10.169  0.00  0.00    +0.000 OA
ATOM     13  C   UNL     1      33.206  80.243 -11.792  0.00  0.00    +0.000 A 
ATOM     14  C   UNL     1      32.848  79.353 -12.767  0.00  0.00    +0.000 A 
ATOM     15  O   UNL     1      33.869  78.648 -13.405  0.00  0.00    +0.000 OA
ATOM     16  C   UNL     1      31.514  79.030 -12.984  0.00  0.00    +0.000 A 
ENDBRANCH   8   9
BRANCH   7   6
ATOM      3  C   UNL     1      25.807  81.601 -14.470  0.00  0.00    +0.000 A 
ATOM      4  C   UNL     1      26.510  82.334 -13.545  0.00  0.00    +0.000 A 
ATOM      5  C   UNL     1      27.225  81.713 -12.531  0.00  0.00    +0.000 A 
ATOM      6  C   UNL     1      27.006  80.374 -12.238  0.00  0.00    +0.000 A 
ATOM     17  C   UNL     1      25.958  79.770 -12.922  0.00  0.00    +0.000 A 
ATOM     18  C   UNL     1      25.426  80.326 -14.080  0.00  0.00    +0.000 A 
BRANCH   3   2
ATOM      1  C   UNL     1      25.215  83.053 -16.365  0.00  0.00    +0.000 C 
ATOM      2  O   UNL     1      25.806  81.888 -15.837  0.00  0.00    +0.000 OA
ENDBRANCH   3   2
ENDBRANCH   7   6
TORSDOF 3
ENDMDL
MODEL 9
REMARK VINA RESULT:      -5.5     19.940     22.196
REMARK  Name = 
REMARK  3 active torsions:
REMARK  status: ('A' for Active; 'I' for Inactive)
REMARK    1  A    between atoms: O_2  and  C_3
REMARK    2  A    between atoms: C_6  and  C_7
REMARK    3  A    between atoms: C_8  and  C_9
REMARK                            x       y       z     vdW  Elec       q    Type
REMARK                         _______ _______ _______ _____ _____    ______ ____
ROOT
ATOM      7  C   UNL     1       6.568  55.642  22.712  0.00  0.00    +0.000 C 
ATOM      8  C   UNL     1       7.288  54.559  22.863  0.00  0.00    +0.000 C 
ENDROOT
BRANCH   8   9
ATOM      9  C   UNL     1       8.727  54.566  23.157  0.00  0.00    +0.000 A 
ATOM     10  C   UNL     1       9.260  53.789  24.179  0.00  0.00    +0.000 A 
ATOM     11  C   UNL     1      10.300  54.193  24.971  0.00  0.00    +0.000 A 
ATOM     12  O   UNL     1      10.591  53.529  26.150  0.00  0.00    +0.000 OA
ATOM     13  C   UNL     1      11.083  55.254  24.535  0.00  0.00    +0.000 A 
ATOM     14  C   UNL     1      10.605  56.031  23.516  0.00  0.00    +0.000 A 
ATOM     15  O   UNL     1      11.484  56.940  22.928  0.00  0.00    +0.000 OA
ATOM     16  C   UNL     1       9.350  55.795  22.968  0.00  0.00    +0.000 A 
ENDBRANCH   8   9
BRANCH   7   6
ATOM      3  C   UNL     1       3.956  54.513  19.732  0.00  0.00    +0.000 A 
ATOM      4  C   UNL     1       5.070  55.241  19.391  0.00  0.00    +0.000 A 
ATOM      5  C   UNL     1       5.924  55.743  20.362  0.00  0.00    +0.000 A 
ATOM      6  C   UNL     1       5.523  55.791  21.690  0.00  0.00    +0.000 A 
ATOM     17  C   UNL     1       4.202  55.439  21.935  0.00  0.00    +0.000 A 
ATOM     18  C   UNL     1       3.453  54.724  21.008  0.00  0.00    +0.000 A 
BRANCH   3   2
ATOM      1  C   UNL     1       3.747  52.065  19.619  0.00  0.00    +0.000 C 
ATOM      2  O   UNL     1       3.565  53.349  19.066  0.00  0.00    +0.000 OA
ENDBRANCH   3   2
ENDBRANCH   7   6
TORSDOF 3
ENDMDL
MODEL 10
REMARK VINA RESULT:      -5.4     38.386     42.539
REMARK  Name = 
REMARK  3 active torsions:
REMARK  status: ('A' for Active; 'I' for Inactive)
REMARK    1  A    between atoms: O_2  and  C_3
REMARK    2  A    between atoms: C_6  and  C_7
REMARK    3  A    between atoms: C_8  and  C_9
REMARK                            x       y       z     vdW  Elec       q    Type
REMARK                         _______ _______ _______ _____ _____    ______ ____
ROOT
ATOM      7  C   UNL     1       8.309  44.937 -15.876  0.00  0.00    +0.000 C 
ATOM      8  C   UNL     1       9.253  44.341 -16.560  0.00  0.00    +0.000 C 
ENDROOT
BRANCH   8   9
ATOM      9  C   UNL     1       9.013  43.243 -17.505  0.00  0.00    +0.000 A 
ATOM     10  C   UNL     1       9.062  43.446 -18.879  0.00  0.00    +0.000 A 
ATOM     11  C   UNL     1       8.236  42.814 -19.767  0.00  0.00    +0.000 A 
ATOM     12  O   UNL     1       8.115  43.267 -21.069  0.00  0.00    +0.000 OA
ATOM     13  C   UNL     1       7.559  41.678 -19.339  0.00  0.00    +0.000 A 
ATOM     14  C   UNL     1       7.506  41.429 -17.995  0.00  0.00    +0.000 A 
ATOM     15  O   UNL     1       7.035  40.181 -17.587  0.00  0.00    +0.000 OA
ATOM     16  C   UNL     1       8.068  42.313 -17.082  0.00  0.00    +0.000 A 
ENDBRANCH   8   9
BRANCH   7   6
ATOM      3  C   UNL     1       7.151  46.291 -12.161  0.00  0.00    +0.000 A 
ATOM      4  C   UNL     1       7.870  47.133 -12.975  0.00  0.00    +0.000 A 
ATOM      5  C   UNL     1       8.381  46.695 -14.187  0.00  0.00    +0.000 A 
ATOM      6  C   UNL     1       8.448  45.338 -14.470  0.00  0.00    +0.000 A 
ATOM     17  C   UNL     1       8.104  44.486 -13.428  0.00  0.00    +0.000 A 
ATOM     18  C   UNL     1       7.381  44.933 -12.329  0.00  0.00    +0.000 A 
BRANCH   3   2
ATOM      1  C   UNL     1       4.718  46.654 -12.132  0.00  0.00    +0.000 C 
ATOM      2  O   UNL     1       5.980  46.674 -11.503  0.00  0.00    +0.000 OA
ENDBRANCH   3   2
ENDBRANCH   7   6
TORSDOF 3
ENDMDL
