MODEL 1
REMARK VINA RESULT:      -7.3      0.000      0.000
REMARK  Name = 
REMARK  8 active torsions:
REMARK  status: ('A' for Active; 'I' for Inactive)
REMARK    1  A    between atoms: C_2  and  O_3
REMARK    2  A    between atoms: C_2  and  C_31
REMARK    3  A    between atoms: O_3  and  C_4
REMARK    4  A    between atoms: C_9  and  C_10
REMARK    5  A    between atoms: C_13  and  O_14
REMARK    6  A    between atoms: O_14  and  C_15
REMARK    7  A    between atoms: C_18  and  C_19
REMARK    8  A    between atoms: C_20  and  C_21
REMARK                            x       y       z     vdW  Elec       q    Type
REMARK                         _______ _______ _______ _____ _____    ______ ____
ROOT
ATOM      4  C   UNL     1       6.633  56.861   8.984  0.00  0.00    +0.000 C 
ATOM      5  C   UNL     1       6.587  56.149  10.524  0.00  0.00    +0.000 C 
ATOM      6  O   UNL     1       7.803  55.337  10.192  0.00  0.00    +0.000 OA
ATOM      7  C   UNL     1       5.577  54.879  10.017  0.00  0.00    +0.000 C 
ATOM      8  O   UNL     1       5.479  54.380  11.428  0.00  0.00    +0.000 OA
ATOM      9  C   UNL     1       4.082  55.717  10.158  0.00  0.00    +0.000 C 
ATOM     12  O   UNL     1       4.342  56.524   8.913  0.00  0.00    +0.000 OA
ATOM     13  C   UNL     1       5.179  57.700   9.366  0.00  0.00    +0.000 C 
ENDROOT
BRANCH   9  10
ATOM     10  C   UNL     1       4.542  56.814  11.292  0.00  0.00    +0.000 C 
ATOM     11  O   UNL     1       3.546  56.804  12.245  0.00  0.00    +0.000 OA
ENDBRANCH   9  10
BRANCH   4   3
ATOM      3  O   UNL     1       7.548  57.944   9.527  0.00  0.00    +0.000 OA
BRANCH   3   2
ATOM      1  O   UNL     1       8.440  58.529   8.702  0.00  0.00    +0.000 OA
ATOM      2  C   UNL     1       8.494  58.381   8.697  0.00  0.00    +0.000 C 
BRANCH   2  31
ATOM     31  C   UNL     1       9.665  57.889   8.049  0.00  0.00    +0.000 A 
ATOM     32  C   UNL     1       9.935  56.639   7.593  0.00  0.00    +0.000 A 
ATOM     33  C   UNL     1      10.950  56.375   6.739  0.00  0.00    +0.000 A 
ATOM     34  O   UNL     1      11.382  55.053   6.620  0.00  0.00    +0.000 OA
ATOM     35  C   UNL     1      11.672  57.429   6.204  0.00  0.00    +0.000 A 
ATOM     36  O   UNL     1      12.840  57.172   5.505  0.00  0.00    +0.000 OA
ATOM     37  C   UNL     1      11.400  58.721   6.547  0.00  0.00    +0.000 A 
ATOM     38  O   UNL     1      12.152  59.817   6.121  0.00  0.00    +0.000 OA
ATOM     39  C   UNL     1      10.461  58.906   7.528  0.00  0.00    +0.000 A 
ENDBRANCH   2  31
ENDBRANCH   3   2
ENDBRANCH   4   3
BRANCH  13  14
ATOM     14  O   UNL     1       5.130  58.305   7.937  0.00  0.00    +0.000 OA
BRANCH  14  15
ATOM     15  C   UNL     1       5.057  59.693   8.085  0.00  0.00    +0.000 A 
ATOM     16  C   UNL     1       4.780  60.529   7.012  0.00  0.00    +0.000 A 
ATOM     17  C   UNL     1       3.966  61.650   7.143  0.00  0.00    +0.000 A 
ATOM     18  C   UNL     1       3.493  61.967   8.391  0.00  0.00    +0.000 A 
ATOM     29  C   UNL     1       4.273  61.536   9.460  0.00  0.00    +0.000 A 
ATOM     30  C   UNL     1       4.881  60.292   9.324  0.00  0.00    +0.000 A 
BRANCH  18  19
ATOM     19  C   UNL     1       2.262  62.730   8.625  0.00  0.00    +0.000 C 
ATOM     20  C   UNL     1       1.156  62.105   8.212  0.00  0.00    +0.000 C 
BRANCH  20  21
ATOM     21  C   UNL     1       1.030  60.721   8.691  0.00  0.00    +0.000 A 
ATOM     22  C   UNL     1       1.115  60.395  10.029  0.00  0.00    +0.000 A 
ATOM     23  C   UNL     1       0.863  59.077  10.366  0.00  0.00    +0.000 A 
ATOM     24  O   UNL     1       0.549  58.699  11.663  0.00  0.00    +0.000 OA
ATOM     25  C   UNL     1       1.313  58.126   9.456  0.00  0.00    +0.000 A 
ATOM     26  C   UNL     1       1.371  58.442   8.111  0.00  0.00    +0.000 A 
ATOM     27  O   UNL     1       1.926  57.542   7.208  0.00  0.00    +0.000 OA
ATOM     28  C   UNL     1       0.981  59.724   7.752  0.00  0.00    +0.000 A 
ENDBRANCH  20  21
ENDBRANCH  18  19
ENDBRANCH  14  15
ENDBRANCH  13  14
TORSDOF 8
ENDMDL
MODEL 2
REMARK VINA RESULT:      -7.3     14.846     18.924
REMARK  Name = 
REMARK  8 active torsions:
REMARK  status: ('A' for Active; 'I' for Inactive)
REMARK    1  A    between atoms: C_2  and  O_3
REMARK    2  A    between atoms: C_2  and  C_31
REMARK    3  A    between atoms: O_3  and  C_4
REMARK    4  A    between atoms: C_9  and  C_10
REMARK    5  A    between atoms: C_13  and  O_14
REMARK    6  A    between atoms: O_14  and  C_15
REMARK    7  A    between atoms: C_18  and  C_19
REMARK    8  A    between atoms: C_20  and  C_21
REMARK                            x       y       z     vdW  Elec       q    Type
REMARK                         _______ _______ _______ _____ _____    ______ ____
ROOT
ATOM      4  C   UNL     1      20.763  68.732  15.016  0.00  0.00    +0.000 C 
ATOM      5  C   UNL     1      20.731  70.120  15.994  0.00  0.00    +0.000 C 
ATOM      6  O   UNL     1      20.127  70.905  14.868  0.00  0.00    +0.000 OA
ATOM      7  C   UNL     1      22.289  70.609  15.525  0.00  0.00    +0.000 C 
ATOM      8  O   UNL     1      22.240  71.742  16.505  0.00  0.00    +0.000 OA
ATOM      9  C   UNL     1      23.169  69.627  16.629  0.00  0.00    +0.000 C 
ATOM     12  O   UNL     1      22.901  68.376  15.834  0.00  0.00    +0.000 OA
ATOM     13  C   UNL     1      21.546  67.890  16.297  0.00  0.00    +0.000 C 
ENDROOT
BRANCH   9  10
ATOM     10  C   UNL     1      22.002  69.473  17.776  0.00  0.00    +0.000 C 
ATOM     11  O   UNL     1      22.630  69.709  18.980  0.00  0.00    +0.000 OA
ENDBRANCH   9  10
BRANCH   4   3
ATOM      3  O   UNL     1      19.359  68.389  15.481  0.00  0.00    +0.000 OA
BRANCH   3   2
ATOM      1  O   UNL     1      18.527  67.734  14.645  0.00  0.00    +0.000 OA
ATOM      2  C   UNL     1      18.549  67.866  14.561  0.00  0.00    +0.000 C 
BRANCH   2  31
ATOM     31  C   UNL     1      17.921  68.252  13.341  0.00  0.00    +0.000 A 
ATOM     32  C   UNL     1      18.367  69.089  12.371  0.00  0.00    +0.000 A 
ATOM     33  C   UNL     1      17.816  69.139  11.136  0.00  0.00    +0.000 A 
ATOM     34  O   UNL     1      18.078  70.259  10.344  0.00  0.00    +0.000 OA
ATOM     35  C   UNL     1      16.841  68.218  10.796  0.00  0.00    +0.000 A 
ATOM     36  O   UNL     1      16.119  68.386   9.625  0.00  0.00    +0.000 OA
ATOM     37  C   UNL     1      16.403  67.286  11.691  0.00  0.00    +0.000 A 
ATOM     38  O   UNL     1      15.355  66.396  11.444  0.00  0.00    +0.000 OA
ATOM     39  C   UNL     1      16.895  67.388  12.967  0.00  0.00    +0.000 A 
ENDBRANCH   2  31
ENDBRANCH   3   2
ENDBRANCH   4   3
BRANCH  13  14
ATOM     14  O   UNL     1      21.680  66.624  15.409  0.00  0.00    +0.000 OA
BRANCH  14  15
ATOM     15  C   UNL     1      21.411  65.522  16.227  0.00  0.00    +0.000 A 
ATOM     16  C   UNL     1      20.112  65.140  16.533  0.00  0.00    +0.000 A 
ATOM     17  C   UNL     1      19.738  63.802  16.608  0.00  0.00    +0.000 A 
ATOM     18  C   UNL     1      20.708  62.845  16.446  0.00  0.00    +0.000 A 
ATOM     29  C   UNL     1      22.000  63.233  16.784  0.00  0.00    +0.000 A 
ATOM     30  C   UNL     1      22.359  64.541  16.473  0.00  0.00    +0.000 A 
BRANCH  18  19
ATOM     19  C   UNL     1      20.437  61.484  15.970  0.00  0.00    +0.000 C 
ATOM     20  C   UNL     1      20.270  60.595  16.953  0.00  0.00    +0.000 C 
BRANCH  20  21
ATOM     21  C   UNL     1      19.305  61.007  17.983  0.00  0.00    +0.000 A 
ATOM     22  C   UNL     1      19.693  61.322  19.269  0.00  0.00    +0.000 A 
ATOM     23  C   UNL     1      18.711  61.808  20.114  0.00  0.00    +0.000 A 
ATOM     24  O   UNL     1      19.019  62.500  21.276  0.00  0.00    +0.000 OA
ATOM     25  C   UNL     1      17.449  61.247  19.956  0.00  0.00    +0.000 A 
ATOM     26  C   UNL     1      17.053  60.794  18.711  0.00  0.00    +0.000 A 
ATOM     27  O   UNL     1      15.842  60.127  18.564  0.00  0.00    +0.000 OA
ATOM     28  C   UNL     1      17.972  60.920  17.679  0.00  0.00    +0.000 A 
ENDBRANCH  20  21
ENDBRANCH  18  19
ENDBRANCH  14  15
ENDBRANCH  13  14
TORSDOF 8
ENDMDL
MODEL 3
REMARK VINA RESULT:      -7.2      2.370      3.838
REMARK  Name = 
REMARK  8 active torsions:
REMARK  status: ('A' for Active; 'I' for Inactive)
REMARK    1  A    between atoms: C_2  and  O_3
REMARK    2  A    between atoms: C_2  and  C_31
REMARK    3  A    between atoms: O_3  and  C_4
REMARK    4  A    between atoms: C_9  and  C_10
REMARK    5  A    between atoms: C_13  and  O_14
REMARK    6  A    between atoms: O_14  and  C_15
REMARK    7  A    between atoms: C_18  and  C_19
REMARK    8  A    between atoms: C_20  and  C_21
REMARK                            x       y       z     vdW  Elec       q    Type
REMARK                         _______ _______ _______ _____ _____    ______ ____
ROOT
ATOM      4  C   UNL     1       3.830  57.292   9.656  0.00  0.00    +0.000 C 
ATOM      5  C   UNL     1       4.518  56.381  10.912  0.00  0.00    +0.000 C 
ATOM      6  O   UNL     1       5.580  55.885   9.978  0.00  0.00    +0.000 OA
ATOM      7  C   UNL     1       3.562  55.016  10.582  0.00  0.00    +0.000 C 
ATOM      8  O   UNL     1       4.121  54.319  11.786  0.00  0.00    +0.000 OA
ATOM      9  C   UNL     1       2.164  55.509  11.456  0.00  0.00    +0.000 C 
ATOM     12  O   UNL     1       1.779  56.514  10.403  0.00  0.00    +0.000 OA
ATOM     13  C   UNL     1       2.570  57.761  10.731  0.00  0.00    +0.000 C 
ENDROOT
BRANCH   9  10
ATOM     10  C   UNL     1       2.908  56.511  12.526  0.00  0.00    +0.000 C 
ATOM     11  O   UNL     1       2.422  56.157  13.766  0.00  0.00    +0.000 OA
ENDBRANCH   9  10
BRANCH   4   3
ATOM      3  O   UNL     1       4.740  58.452  10.016  0.00  0.00    +0.000 OA
BRANCH   3   2
ATOM      1  O   UNL     1       5.086  59.269   9.000  0.00  0.00    +0.000 OA
ATOM      2  C   UNL     1       5.208  59.169   8.994  0.00  0.00    +0.000 C 
BRANCH   2  31
ATOM     31  C   UNL     1       6.370  59.231   8.171  0.00  0.00    +0.000 A 
ATOM     32  C   UNL     1       6.688  60.121   7.197  0.00  0.00    +0.000 A 
ATOM     33  C   UNL     1       7.941  60.247   6.701  0.00  0.00    +0.000 A 
ATOM     34  O   UNL     1       8.100  60.898   5.476  0.00  0.00    +0.000 OA
ATOM     35  C   UNL     1       8.972  59.536   7.289  0.00  0.00    +0.000 A 
ATOM     36  O   UNL     1      10.209  59.486   6.667  0.00  0.00    +0.000 OA
ATOM     37  C   UNL     1       8.745  58.688   8.333  0.00  0.00    +0.000 A 
ATOM     38  O   UNL     1       9.722  57.870   8.903  0.00  0.00    +0.000 OA
ATOM     39  C   UNL     1       7.434  58.494   8.686  0.00  0.00    +0.000 A 
ENDBRANCH   2  31
ENDBRANCH   3   2
ENDBRANCH   4   3
BRANCH  13  14
ATOM     14  O   UNL     1       1.856  58.533   9.589  0.00  0.00    +0.000 OA
BRANCH  14  15
ATOM     15  C   UNL     1       1.679  59.846  10.034  0.00  0.00    +0.000 A 
ATOM     16  C   UNL     1       0.804  60.720   9.402  0.00  0.00    +0.000 A 
ATOM     17  C   UNL     1       0.016  61.616  10.118  0.00  0.00    +0.000 A 
ATOM     18  C   UNL     1       0.175  61.679  11.479  0.00  0.00    +0.000 A 
ATOM     29  C   UNL     1       1.427  61.307  11.958  0.00  0.00    +0.000 A 
ATOM     30  C   UNL     1       2.052  60.247  11.308  0.00  0.00    +0.000 A 
BRANCH  18  19
ATOM     19  C   UNL     1      -0.875  62.126  12.401  0.00  0.00    +0.000 C 
ATOM     20  C   UNL     1      -1.980  61.378  12.361  0.00  0.00    +0.000 C 
BRANCH  20  21
ATOM     21  C   UNL     1      -1.737  59.933  12.483  0.00  0.00    +0.000 A 
ATOM     22  C   UNL     1      -0.994  59.398  13.515  0.00  0.00    +0.000 A 
ATOM     23  C   UNL     1      -0.934  58.017  13.588  0.00  0.00    +0.000 A 
ATOM     24  O   UNL     1      -0.554  57.360  14.749  0.00  0.00    +0.000 OA
ATOM     25  C   UNL     1      -0.890  57.351  12.368  0.00  0.00    +0.000 A 
ATOM     26  C   UNL     1      -1.510  57.906  11.264  0.00  0.00    +0.000 A 
ATOM     27  O   UNL     1      -1.375  57.309  10.016  0.00  0.00    +0.000 OA
ATOM     28  C   UNL     1      -2.138  59.129  11.448  0.00  0.00    +0.000 A 
ENDBRANCH  20  21
ENDBRANCH  18  19
ENDBRANCH  14  15
ENDBRANCH  13  14
TORSDOF 8
ENDMDL
MODEL 4
REMARK VINA RESULT:      -7.2     14.353     18.911
REMARK  Name = 
REMARK  8 active torsions:
REMARK  status: ('A' for Active; 'I' for Inactive)
REMARK    1  A    between atoms: C_2  and  O_3
REMARK    2  A    between atoms: C_2  and  C_31
REMARK    3  A    between atoms: O_3  and  C_4
REMARK    4  A    between atoms: C_9  and  C_10
REMARK    5  A    between atoms: C_13  and  O_14
REMARK    6  A    between atoms: O_14  and  C_15
REMARK    7  A    between atoms: C_18  and  C_19
REMARK    8  A    between atoms: C_20  and  C_21
REMARK                            x       y       z     vdW  Elec       q    Type
REMARK                         _______ _______ _______ _____ _____    ______ ____
ROOT
ATOM      4  C   UNL     1      20.655  68.597  14.921  0.00  0.00    +0.000 C 
ATOM      5  C   UNL     1      20.612  70.004  15.869  0.00  0.00    +0.000 C 
ATOM      6  O   UNL     1      20.006  70.762  14.726  0.00  0.00    +0.000 OA
ATOM      7  C   UNL     1      22.169  70.493  15.394  0.00  0.00    +0.000 C 
ATOM      8  O   UNL     1      22.110  71.646  16.350  0.00  0.00    +0.000 OA
ATOM      9  C   UNL     1      23.052  69.540  16.520  0.00  0.00    +0.000 C 
ATOM     12  O   UNL     1      22.794  68.271  15.750  0.00  0.00    +0.000 OA
ATOM     13  C   UNL     1      21.441  67.786  16.221  0.00  0.00    +0.000 C 
ENDROOT
BRANCH   9  10
ATOM     10  C   UNL     1      21.884  69.403  17.668  0.00  0.00    +0.000 C 
ATOM     11  O   UNL     1      22.509  69.660  18.868  0.00  0.00    +0.000 OA
ENDBRANCH   9  10
BRANCH   4   3
ATOM      3  O   UNL     1      19.253  68.254  15.390  0.00  0.00    +0.000 OA
BRANCH   3   2
ATOM      1  O   UNL     1      18.430  67.580  14.560  0.00  0.00    +0.000 OA
ATOM      2  C   UNL     1      18.445  67.713  14.478  0.00  0.00    +0.000 C 
BRANCH   2  31
ATOM     31  C   UNL     1      17.781  68.091  13.275  0.00  0.00    +0.000 A 
ATOM     32  C   UNL     1      18.161  68.983  12.325  0.00  0.00    +0.000 A 
ATOM     33  C   UNL     1      17.594  69.031  11.097  0.00  0.00    +0.000 A 
ATOM     34  O   UNL     1      17.775  70.187  10.335  0.00  0.00    +0.000 OA
ATOM     35  C   UNL     1      16.676  68.059  10.741  0.00  0.00    +0.000 A 
ATOM     36  O   UNL     1      15.933  68.213   9.582  0.00  0.00    +0.000 OA
ATOM     37  C   UNL     1      16.310  67.076  11.613  0.00  0.00    +0.000 A 
ATOM     38  O   UNL     1      15.319  66.128  11.350  0.00  0.00    +0.000 OA
ATOM     39  C   UNL     1      16.808  67.174  12.886  0.00  0.00    +0.000 A 
ENDBRANCH   2  31
ENDBRANCH   3   2
ENDBRANCH   4   3
BRANCH  13  14
ATOM     14  O   UNL     1      21.585  66.503  15.360  0.00  0.00    +0.000 OA
BRANCH  14  15
ATOM     15  C   UNL     1      21.483  65.414  16.231  0.00  0.00    +0.000 A 
ATOM     16  C   UNL     1      20.312  65.140  16.924  0.00  0.00    +0.000 A 
ATOM     17  C   UNL     1      19.863  63.837  17.122  0.00  0.00    +0.000 A 
ATOM     18  C   UNL     1      20.649  62.804  16.680  0.00  0.00    +0.000 A 
ATOM     29  C   UNL     1      22.012  63.073  16.603  0.00  0.00    +0.000 A 
ATOM     30  C   UNL     1      22.372  64.350  16.185  0.00  0.00    +0.000 A 
BRANCH  18  19
ATOM     19  C   UNL     1      20.128  61.480  16.323  0.00  0.00    +0.000 C 
ATOM     20  C   UNL     1      19.474  61.456  15.159  0.00  0.00    +0.000 C 
BRANCH  20  21
ATOM     21  C   UNL     1      20.208  62.064  14.040  0.00  0.00    +0.000 A 
ATOM     22  C   UNL     1      19.873  63.300  13.527  0.00  0.00    +0.000 A 
ATOM     23  C   UNL     1      20.710  63.817  12.554  0.00  0.00    +0.000 A 
ATOM     24  O   UNL     1      20.712  65.167  12.231  0.00  0.00    +0.000 OA
ATOM     25  C   UNL     1      21.247  62.892  11.667  0.00  0.00    +0.000 A 
ATOM     26  C   UNL     1      21.486  61.598  12.092  0.00  0.00    +0.000 A 
ATOM     27  O   UNL     1      21.914  60.635  11.185  0.00  0.00    +0.000 OA
ATOM     28  C   UNL     1      21.150  61.298  13.404  0.00  0.00    +0.000 A 
ENDBRANCH  20  21
ENDBRANCH  18  19
ENDBRANCH  14  15
ENDBRANCH  13  14
TORSDOF 8
ENDMDL
MODEL 5
REMARK VINA RESULT:      -7.1     22.215     25.664
REMARK  Name = 
REMARK  8 active torsions:
REMARK  status: ('A' for Active; 'I' for Inactive)
REMARK    1  A    between atoms: C_2  and  O_3
REMARK    2  A    between atoms: C_2  and  C_31
REMARK    3  A    between atoms: O_3  and  C_4
REMARK    4  A    between atoms: C_9  and  C_10
REMARK    5  A    between atoms: C_13  and  O_14
REMARK    6  A    between atoms: O_14  and  C_15
REMARK    7  A    between atoms: C_18  and  C_19
REMARK    8  A    between atoms: C_20  and  C_21
REMARK                            x       y       z     vdW  Elec       q    Type
REMARK                         _______ _______ _______ _____ _____    ______ ____
ROOT
ATOM      4  C   UNL     1      11.584  58.545 -15.710  0.00  0.00    +0.000 C 
ATOM      5  C   UNL     1      10.985  57.065 -15.133  0.00  0.00    +0.000 C 
ATOM      6  O   UNL     1      10.816  56.577 -16.540  0.00  0.00    +0.000 OA
ATOM      7  C   UNL     1       9.376  57.611 -15.108  0.00  0.00    +0.000 C 
ATOM      8  O   UNL     1       8.937  56.323 -14.478  0.00  0.00    +0.000 OA
ATOM      9  C   UNL     1       9.433  58.396 -13.578  0.00  0.00    +0.000 C 
ATOM     12  O   UNL     1      10.225  59.554 -14.128  0.00  0.00    +0.000 OA
ATOM     13  C   UNL     1      11.670  59.106 -14.085  0.00  0.00    +0.000 C 
ENDROOT
BRANCH   9  10
ATOM     10  C   UNL     1      10.658  57.519 -12.919  0.00  0.00    +0.000 C 
ATOM     11  O   UNL     1      10.304  57.319 -11.603  0.00  0.00    +0.000 OA
ENDBRANCH   9  10
BRANCH   4   3
ATOM      3  O   UNL     1      12.985  57.961 -15.715  0.00  0.00    +0.000 OA
BRANCH   3   2
ATOM      1  O   UNL     1      13.743  58.380 -16.749  0.00  0.00    +0.000 OA
ATOM      2  C   UNL     1      13.821  58.450 -16.631  0.00  0.00    +0.000 C 
BRANCH   2  31
ATOM     31  C   UNL     1      14.919  59.355 -16.705  0.00  0.00    +0.000 A 
ATOM     32  C   UNL     1      15.651  59.905 -15.704  0.00  0.00    +0.000 A 
ATOM     33  C   UNL     1      16.844  60.508 -15.914  0.00  0.00    +0.000 A 
ATOM     34  O   UNL     1      17.337  61.355 -14.919  0.00  0.00    +0.000 OA
ATOM     35  C   UNL     1      17.411  60.458 -17.176  0.00  0.00    +0.000 A 
ATOM     36  O   UNL     1      18.515  61.244 -17.461  0.00  0.00    +0.000 OA
ATOM     37  C   UNL     1      16.775  59.843 -18.215  0.00  0.00    +0.000 A 
ATOM     38  O   UNL     1      17.245  59.845 -19.530  0.00  0.00    +0.000 OA
ATOM     39  C   UNL     1      15.506  59.387 -17.968  0.00  0.00    +0.000 A 
ENDBRANCH   2  31
ENDBRANCH   3   2
ENDBRANCH   4   3
BRANCH  13  14
ATOM     14  O   UNL     1      12.133  60.505 -14.572  0.00  0.00    +0.000 OA
BRANCH  14  15
ATOM     15  C   UNL     1      12.652  61.173 -13.458  0.00  0.00    +0.000 A 
ATOM     16  C   UNL     1      13.907  60.873 -12.947  0.00  0.00    +0.000 A 
ATOM     17  C   UNL     1      14.761  61.862 -12.469  0.00  0.00    +0.000 A 
ATOM     18  C   UNL     1      14.306  63.156 -12.439  0.00  0.00    +0.000 A 
ATOM     29  C   UNL     1      12.927  63.309 -12.335  0.00  0.00    +0.000 A 
ATOM     30  C   UNL     1      12.146  62.390 -13.029  0.00  0.00    +0.000 A 
BRANCH  18  19
ATOM     19  C   UNL     1      15.185  64.329 -12.489  0.00  0.00    +0.000 C 
ATOM     20  C   UNL     1      15.715  64.553 -13.695  0.00  0.00    +0.000 C 
BRANCH  20  21
ATOM     21  C   UNL     1      14.738  64.566 -14.792  0.00  0.00    +0.000 A 
ATOM     22  C   UNL     1      14.664  63.551 -15.724  0.00  0.00    +0.000 A 
ATOM     23  C   UNL     1      13.628  63.619 -16.638  0.00  0.00    +0.000 A 
ATOM     24  O   UNL     1      13.218  62.511 -17.366  0.00  0.00    +0.000 OA
ATOM     25  C   UNL     1      13.287  64.896 -17.069  0.00  0.00    +0.000 A 
ATOM     26  C   UNL     1      13.460  65.973 -16.219  0.00  0.00    +0.000 A 
ATOM     27  O   UNL     1      13.233  67.265 -16.678  0.00  0.00    +0.000 OA
ATOM     28  C   UNL     1      13.990  65.702 -14.966  0.00  0.00    +0.000 A 
ENDBRANCH  20  21
ENDBRANCH  18  19
ENDBRANCH  14  15
ENDBRANCH  13  14
TORSDOF 8
ENDMDL
MODEL 6
REMARK VINA RESULT:      -7.0     15.753     19.911
REMARK  Name = 
REMARK  8 active torsions:
REMARK  status: ('A' for Active; 'I' for Inactive)
REMARK    1  A    between atoms: C_2  and  O_3
REMARK    2  A    between atoms: C_2  and  C_31
REMARK    3  A    between atoms: O_3  and  C_4
REMARK    4  A    between atoms: C_9  and  C_10
REMARK    5  A    between atoms: C_13  and  O_14
REMARK    6  A    between atoms: O_14  and  C_15
REMARK    7  A    between atoms: C_18  and  C_19
REMARK    8  A    between atoms: C_20  and  C_21
REMARK                            x       y       z     vdW  Elec       q    Type
REMARK                         _______ _______ _______ _____ _____    ______ ____
ROOT
ATOM      4  C   UNL     1      19.218  66.366  15.501  0.00  0.00    +0.000 C 
ATOM      5  C   UNL     1      20.095  64.932  15.264  0.00  0.00    +0.000 C 
ATOM      6  O   UNL     1      18.814  64.160  15.152  0.00  0.00    +0.000 OA
ATOM      7  C   UNL     1      20.178  64.590  16.927  0.00  0.00    +0.000 C 
ATOM      8  O   UNL     1      21.058  63.407  16.651  0.00  0.00    +0.000 OA
ATOM      9  C   UNL     1      21.538  65.579  17.287  0.00  0.00    +0.000 C 
ATOM     12  O   UNL     1      20.726  66.844  17.193  0.00  0.00    +0.000 OA
ATOM     13  C   UNL     1      20.708  67.200  15.723  0.00  0.00    +0.000 C 
ENDROOT
BRANCH   9  10
ATOM     10  C   UNL     1      22.219  65.583  15.791  0.00  0.00    +0.000 C 
ATOM     11  O   UNL     1      23.567  65.383  15.995  0.00  0.00    +0.000 OA
ENDBRANCH   9  10
BRANCH   4   3
ATOM      3  O   UNL     1      19.181  66.575  13.998  0.00  0.00    +0.000 OA
BRANCH   3   2
ATOM      1  O   UNL     1      18.000  67.127  13.651  0.00  0.00    +0.000 OA
ATOM      2  C   UNL     1      18.061  67.105  13.507  0.00  0.00    +0.000 C 
BRANCH   2  31
ATOM     31  C   UNL     1      17.528  67.512  12.250  0.00  0.00    +0.000 A 
ATOM     32  C   UNL     1      17.668  68.693  11.597  0.00  0.00    +0.000 A 
ATOM     33  C   UNL     1      17.364  68.847  10.287  0.00  0.00    +0.000 A 
ATOM     34  O   UNL     1      17.183  70.144   9.803  0.00  0.00    +0.000 OA
ATOM     35  C   UNL     1      17.014  67.734   9.542  0.00  0.00    +0.000 A 
ATOM     36  O   UNL     1      16.496  67.900   8.268  0.00  0.00    +0.000 OA
ATOM     37  C   UNL     1      16.938  66.496  10.109  0.00  0.00    +0.000 A 
ATOM     38  O   UNL     1      16.496  65.354   9.438  0.00  0.00    +0.000 OA
ATOM     39  C   UNL     1      17.112  66.437  11.468  0.00  0.00    +0.000 A 
ENDBRANCH   2  31
ENDBRANCH   3   2
ENDBRANCH   4   3
BRANCH  13  14
ATOM     14  O   UNL     1      19.947  68.516  16.036  0.00  0.00    +0.000 OA
BRANCH  14  15
ATOM     15  C   UNL     1      20.383  69.468  15.109  0.00  0.00    +0.000 A 
ATOM     16  C   UNL     1      20.120  70.821  15.274  0.00  0.00    +0.000 A 
ATOM     17  C   UNL     1      21.059  71.797  14.953  0.00  0.00    +0.000 A 
ATOM     18  C   UNL     1      22.244  71.399  14.389  0.00  0.00    +0.000 A 
ATOM     29  C   UNL     1      22.202  70.203  13.678  0.00  0.00    +0.000 A 
ATOM     30  C   UNL     1      21.392  69.198  14.198  0.00  0.00    +0.000 A 
BRANCH  18  19
ATOM     19  C   UNL     1      23.490  72.166  14.486  0.00  0.00    +0.000 C 
ATOM     20  C   UNL     1      23.947  72.292  15.735  0.00  0.00    +0.000 C 
BRANCH  20  21
ATOM     21  C   UNL     1      24.035  71.026  16.477  0.00  0.00    +0.000 A 
ATOM     22  C   UNL     1      24.720  69.933  15.988  0.00  0.00    +0.000 A 
ATOM     23  C   UNL     1      24.831  68.840  16.829  0.00  0.00    +0.000 A 
ATOM     24  O   UNL     1      25.782  67.851  16.624  0.00  0.00    +0.000 OA
ATOM     25  C   UNL     1      23.726  68.583  17.632  0.00  0.00    +0.000 A 
ATOM     26  C   UNL     1      22.926  69.631  18.049  0.00  0.00    +0.000 A 
ATOM     27  O   UNL     1      21.756  69.376  18.754  0.00  0.00    +0.000 OA
ATOM     28  C   UNL     1      23.281  70.900  17.614  0.00  0.00    +0.000 A 
ENDBRANCH  20  21
ENDBRANCH  18  19
ENDBRANCH  14  15
ENDBRANCH  13  14
TORSDOF 8
ENDMDL
MODEL 7
REMARK VINA RESULT:      -7.0      0.823      1.974
REMARK  Name = 
REMARK  8 active torsions:
REMARK  status: ('A' for Active; 'I' for Inactive)
REMARK    1  A    between atoms: C_2  and  O_3
REMARK    2  A    between atoms: C_2  and  C_31
REMARK    3  A    between atoms: O_3  and  C_4
REMARK    4  A    between atoms: C_9  and  C_10
REMARK    5  A    between atoms: C_13  and  O_14
REMARK    6  A    between atoms: O_14  and  C_15
REMARK    7  A    between atoms: C_18  and  C_19
REMARK    8  A    between atoms: C_20  and  C_21
REMARK                            x       y       z     vdW  Elec       q    Type
REMARK                         _______ _______ _______ _____ _____    ______ ____
ROOT
ATOM      4  C   UNL     1       6.414  57.149   8.980  0.00  0.00    +0.000 C 
ATOM      5  C   UNL     1       6.438  56.365  10.486  0.00  0.00    +0.000 C 
ATOM      6  O   UNL     1       7.678  55.623  10.086  0.00  0.00    +0.000 OA
ATOM      7  C   UNL     1       5.470  55.078   9.943  0.00  0.00    +0.000 C 
ATOM      8  O   UNL     1       5.429  54.510  11.330  0.00  0.00    +0.000 OA
ATOM      9  C   UNL     1       3.945  55.843  10.159  0.00  0.00    +0.000 C 
ATOM     12  O   UNL     1       4.138  56.718   8.948  0.00  0.00    +0.000 OA
ATOM     13  C   UNL     1       4.937  57.906   9.436  0.00  0.00    +0.000 C 
ENDROOT
BRANCH   9  10
ATOM     10  C   UNL     1       4.388  56.905  11.333  0.00  0.00    +0.000 C 
ATOM     11  O   UNL     1       3.434  56.786  12.321  0.00  0.00    +0.000 OA
ENDBRANCH   9  10
BRANCH   4   3
ATOM      3  O   UNL     1       7.297  58.244   9.552  0.00  0.00    +0.000 OA
BRANCH   3   2
ATOM      1  O   UNL     1       8.087  58.976   8.740  0.00  0.00    +0.000 OA
ATOM      2  C   UNL     1       8.131  58.831   8.694  0.00  0.00    +0.000 C 
BRANCH   2  31
ATOM     31  C   UNL     1       9.159  58.466   7.777  0.00  0.00    +0.000 A 
ATOM     32  C   UNL     1       9.752  59.209   6.809  0.00  0.00    +0.000 A 
ATOM     33  C   UNL     1      10.911  58.844   6.212  0.00  0.00    +0.000 A 
ATOM     34  O   UNL     1      11.245  59.450   4.999  0.00  0.00    +0.000 OA
ATOM     35  C   UNL     1      11.592  57.736   6.686  0.00  0.00    +0.000 A 
ATOM     36  O   UNL     1      12.656  57.225   5.959  0.00  0.00    +0.000 OA
ATOM     37  C   UNL     1      11.103  56.990   7.718  0.00  0.00    +0.000 A 
ATOM     38  O   UNL     1      11.690  55.809   8.175  0.00  0.00    +0.000 OA
ATOM     39  C   UNL     1       9.855  57.327   8.175  0.00  0.00    +0.000 A 
ENDBRANCH   2  31
ENDBRANCH   3   2
ENDBRANCH   4   3
BRANCH  13  14
ATOM     14  O   UNL     1       4.825  58.574   8.039  0.00  0.00    +0.000 OA
BRANCH  14  15
ATOM     15  C   UNL     1       4.643  59.943   8.256  0.00  0.00    +0.000 A 
ATOM     16  C   UNL     1       4.173  60.785   7.257  0.00  0.00    +0.000 A 
ATOM     17  C   UNL     1       3.281  61.818   7.525  0.00  0.00    +0.000 A 
ATOM     18  C   UNL     1       2.923  62.046   8.829  0.00  0.00    +0.000 A 
ATOM     29  C   UNL     1       3.853  61.655   9.788  0.00  0.00    +0.000 A 
ATOM     30  C   UNL     1       4.553  60.480   9.532  0.00  0.00    +0.000 A 
BRANCH  18  19
ATOM     19  C   UNL     1       1.662  62.680   9.229  0.00  0.00    +0.000 C 
ATOM     20  C   UNL     1       0.586  61.920   9.008  0.00  0.00    +0.000 C 
BRANCH  20  21
ATOM     21  C   UNL     1       0.692  60.553   9.537  0.00  0.00    +0.000 A 
ATOM     22  C   UNL     1       0.541  59.440   8.735  0.00  0.00    +0.000 A 
ATOM     23  C   UNL     1       0.779  58.211   9.324  0.00  0.00    +0.000 A 
ATOM     24  O   UNL     1       1.028  57.073   8.570  0.00  0.00    +0.000 OA
ATOM     25  C   UNL     1       0.378  58.091  10.650  0.00  0.00    +0.000 A 
ATOM     26  C   UNL     1       0.387  59.204  11.470  0.00  0.00    +0.000 A 
ATOM     27  O   UNL     1      -0.119  59.121  12.762  0.00  0.00    +0.000 OA
ATOM     28  C   UNL     1       0.791  60.401  10.895  0.00  0.00    +0.000 A 
ENDBRANCH  20  21
ENDBRANCH  18  19
ENDBRANCH  14  15
ENDBRANCH  13  14
TORSDOF 8
ENDMDL
MODEL 8
REMARK VINA RESULT:      -7.0      1.689      2.550
REMARK  Name = 
REMARK  8 active torsions:
REMARK  status: ('A' for Active; 'I' for Inactive)
REMARK    1  A    between atoms: C_2  and  O_3
REMARK    2  A    between atoms: C_2  and  C_31
REMARK    3  A    between atoms: O_3  and  C_4
REMARK    4  A    between atoms: C_9  and  C_10
REMARK    5  A    between atoms: C_13  and  O_14
REMARK    6  A    between atoms: O_14  and  C_15
REMARK    7  A    between atoms: C_18  and  C_19
REMARK    8  A    between atoms: C_20  and  C_21
REMARK                            x       y       z     vdW  Elec       q    Type
REMARK                         _______ _______ _______ _____ _____    ______ ____
ROOT
ATOM      4  C   UNL     1       6.639  56.614   9.204  0.00  0.00    +0.000 C 
ATOM      5  C   UNL     1       6.529  55.902  10.741  0.00  0.00    +0.000 C 
ATOM      6  O   UNL     1       7.792  55.137  10.483  0.00  0.00    +0.000 OA
ATOM      7  C   UNL     1       5.599  54.594  10.179  0.00  0.00    +0.000 C 
ATOM      8  O   UNL     1       5.437  54.093  11.583  0.00  0.00    +0.000 OA
ATOM      9  C   UNL     1       4.068  55.375  10.228  0.00  0.00    +0.000 C 
ATOM     12  O   UNL     1       4.370  56.191   8.998  0.00  0.00    +0.000 OA
ATOM     13  C   UNL     1       5.134  57.398   9.496  0.00  0.00    +0.000 C 
ENDROOT
BRANCH   9  10
ATOM     10  C   UNL     1       4.419  56.490  11.385  0.00  0.00    +0.000 C 
ATOM     11  O   UNL     1       3.381  56.426  12.289  0.00  0.00    +0.000 OA
ENDBRANCH   9  10
BRANCH   4   3
ATOM      3  O   UNL     1       7.478  57.731   9.796  0.00  0.00    +0.000 OA
BRANCH   3   2
ATOM      1  O   UNL     1       8.382  58.395   9.046  0.00  0.00    +0.000 OA
ATOM      2  C   UNL     1       8.412  58.248   8.997  0.00  0.00    +0.000 C 
BRANCH   2  31
ATOM     31  C   UNL     1       9.437  57.799   8.115  0.00  0.00    +0.000 A 
ATOM     32  C   UNL     1       9.808  56.532   7.801  0.00  0.00    +0.000 A 
ATOM     33  C   UNL     1      10.588  56.241   6.734  0.00  0.00    +0.000 A 
ATOM     34  O   UNL     1      11.217  54.994   6.700  0.00  0.00    +0.000 OA
ATOM     35  C   UNL     1      10.924  57.251   5.849  0.00  0.00    +0.000 A 
ATOM     36  O   UNL     1      11.888  57.020   4.881  0.00  0.00    +0.000 OA
ATOM     37  C   UNL     1      10.512  58.536   6.050  0.00  0.00    +0.000 A 
ATOM     38  O   UNL     1      10.899  59.615   5.253  0.00  0.00    +0.000 OA
ATOM     39  C   UNL     1       9.854  58.788   7.227  0.00  0.00    +0.000 A 
ENDBRANCH   2  31
ENDBRANCH   3   2
ENDBRANCH   4   3
BRANCH  13  14
ATOM     14  O   UNL     1       5.146  57.998   8.065  0.00  0.00    +0.000 OA
BRANCH  14  15
ATOM     15  C   UNL     1       4.230  59.055   8.059  0.00  0.00    +0.000 A 
ATOM     16  C   UNL     1       3.052  59.004   8.791  0.00  0.00    +0.000 A 
ATOM     17  C   UNL     1       2.549  60.120   9.454  0.00  0.00    +0.000 A 
ATOM     18  C   UNL     1       3.207  61.314   9.308  0.00  0.00    +0.000 A 
ATOM     29  C   UNL     1       3.931  61.465   8.129  0.00  0.00    +0.000 A 
ATOM     30  C   UNL     1       4.585  60.332   7.652  0.00  0.00    +0.000 A 
BRANCH  18  19
ATOM     19  C   UNL     1       3.158  62.397  10.297  0.00  0.00    +0.000 C 
ATOM     20  C   UNL     1       2.298  63.370   9.986  0.00  0.00    +0.000 C 
BRANCH  20  21
ATOM     21  C   UNL     1       0.950  62.897   9.638  0.00  0.00    +0.000 A 
ATOM     22  C   UNL     1       0.516  62.810   8.331  0.00  0.00    +0.000 A 
ATOM     23  C   UNL     1      -0.728  62.241   8.125  0.00  0.00    +0.000 A 
ATOM     24  O   UNL     1      -1.117  61.758   6.884  0.00  0.00    +0.000 OA
ATOM     25  C   UNL     1      -1.688  62.525   9.090  0.00  0.00    +0.000 A 
ATOM     26  C   UNL     1      -1.296  62.749  10.397  0.00  0.00    +0.000 A 
ATOM     27  O   UNL     1      -2.232  63.147  11.346  0.00  0.00    +0.000 OA
ATOM     28  C   UNL     1       0.064  62.688  10.662  0.00  0.00    +0.000 A 
ENDBRANCH  20  21
ENDBRANCH  18  19
ENDBRANCH  14  15
ENDBRANCH  13  14
TORSDOF 8
ENDMDL
MODEL 9
REMARK VINA RESULT:      -7.0     23.417     27.139
REMARK  Name = 
REMARK  8 active torsions:
REMARK  status: ('A' for Active; 'I' for Inactive)
REMARK    1  A    between atoms: C_2  and  O_3
REMARK    2  A    between atoms: C_2  and  C_31
REMARK    3  A    between atoms: O_3  and  C_4
REMARK    4  A    between atoms: C_9  and  C_10
REMARK    5  A    between atoms: C_13  and  O_14
REMARK    6  A    between atoms: O_14  and  C_15
REMARK    7  A    between atoms: C_18  and  C_19
REMARK    8  A    between atoms: C_20  and  C_21
REMARK                            x       y       z     vdW  Elec       q    Type
REMARK                         _______ _______ _______ _____ _____    ______ ____
ROOT
ATOM      4  C   UNL     1      11.486  57.546 -15.220  0.00  0.00    +0.000 C 
ATOM      5  C   UNL     1      10.021  57.765 -14.391  0.00  0.00    +0.000 C 
ATOM      6  O   UNL     1      10.668  57.314 -13.116  0.00  0.00    +0.000 OA
ATOM      7  C   UNL     1       9.490  56.181 -14.705  0.00  0.00    +0.000 C 
ATOM      8  O   UNL     1       8.167  56.487 -14.069  0.00  0.00    +0.000 OA
ATOM      9  C   UNL     1       8.856  56.469 -16.278  0.00  0.00    +0.000 C 
ATOM     12  O   UNL     1      10.230  56.544 -16.890  0.00  0.00    +0.000 OA
ATOM     13  C   UNL     1      10.684  57.972 -16.682  0.00  0.00    +0.000 C 
ENDROOT
BRANCH   9  10
ATOM     10  C   UNL     1       8.548  58.075 -16.108  0.00  0.00    +0.000 C 
ATOM     11  O   UNL     1       7.314  58.279 -16.687  0.00  0.00    +0.000 OA
ENDBRANCH   9  10
BRANCH   4   3
ATOM      3  O   UNL     1      11.880  58.970 -14.874  0.00  0.00    +0.000 OA
BRANCH   3   2
ATOM      1  O   UNL     1      13.218  59.042 -14.725  0.00  0.00    +0.000 OA
ATOM      2  C   UNL     1      13.184  59.195 -14.715  0.00  0.00    +0.000 C 
BRANCH   2  31
ATOM     31  C   UNL     1      14.078  60.302 -14.627  0.00  0.00    +0.000 A 
ATOM     32  C   UNL     1      14.444  61.191 -15.585  0.00  0.00    +0.000 A 
ATOM     33  C   UNL     1      15.062  62.361 -15.300  0.00  0.00    +0.000 A 
ATOM     34  O   UNL     1      15.723  63.023 -16.336  0.00  0.00    +0.000 OA
ATOM     35  C   UNL     1      15.220  62.734 -13.977  0.00  0.00    +0.000 A 
ATOM     36  O   UNL     1      16.033  63.811 -13.664  0.00  0.00    +0.000 OA
ATOM     37  C   UNL     1      14.797  61.932 -12.958  0.00  0.00    +0.000 A 
ATOM     38  O   UNL     1      15.017  62.204 -11.606  0.00  0.00    +0.000 OA
ATOM     39  C   UNL     1      14.317  60.697 -13.314  0.00  0.00    +0.000 A 
ENDBRANCH   2  31
ENDBRANCH   3   2
ENDBRANCH   4   3
BRANCH  13  14
ATOM     14  O   UNL     1      11.977  57.696 -17.495  0.00  0.00    +0.000 OA
BRANCH  14  15
ATOM     15  C   UNL     1      12.052  58.678 -18.487  0.00  0.00    +0.000 A 
ATOM     16  C   UNL     1      12.025  60.032 -18.178  0.00  0.00    +0.000 A 
ATOM     17  C   UNL     1      12.817  60.955 -18.852  0.00  0.00    +0.000 A 
ATOM     18  C   UNL     1      13.586  60.513 -19.899  0.00  0.00    +0.000 A 
ATOM     29  C   UNL     1      13.116  59.379 -20.555  0.00  0.00    +0.000 A 
ATOM     30  C   UNL     1      12.523  58.402 -19.762  0.00  0.00    +0.000 A 
BRANCH  18  19
ATOM     19  C   UNL     1      14.817  61.175 -20.342  0.00  0.00    +0.000 C 
ATOM     20  C   UNL     1      15.848  61.005 -19.511  0.00  0.00    +0.000 C 
BRANCH  20  21
ATOM     21  C   UNL     1      16.097  59.607 -19.134  0.00  0.00    +0.000 A 
ATOM     22  C   UNL     1      15.796  59.120 -17.878  0.00  0.00    +0.000 A 
ATOM     23  C   UNL     1      15.966  57.761 -17.680  0.00  0.00    +0.000 A 
ATOM     24  O   UNL     1      15.365  57.093 -16.623  0.00  0.00    +0.000 OA
ATOM     25  C   UNL     1      17.050  57.187 -18.336  0.00  0.00    +0.000 A 
ATOM     26  C   UNL     1      17.477  57.716 -19.540  0.00  0.00    +0.000 A 
ATOM     27  O   UNL     1      18.628  57.225 -20.146  0.00  0.00    +0.000 OA
ATOM     28  C   UNL     1      16.787  58.821 -20.018  0.00  0.00    +0.000 A 
ENDBRANCH  20  21
ENDBRANCH  18  19
ENDBRANCH  14  15
ENDBRANCH  13  14
TORSDOF 8
ENDMDL
MODEL 10
REMARK VINA RESULT:      -6.7     33.112     37.065
REMARK  Name = 
REMARK  8 active torsions:
REMARK  status: ('A' for Active; 'I' for Inactive)
REMARK    1  A    between atoms: C_2  and  O_3
REMARK    2  A    between atoms: C_2  and  C_31
REMARK    3  A    between atoms: O_3  and  C_4
REMARK    4  A    between atoms: C_9  and  C_10
REMARK    5  A    between atoms: C_13  and  O_14
REMARK    6  A    between atoms: O_14  and  C_15
REMARK    7  A    between atoms: C_18  and  C_19
REMARK    8  A    between atoms: C_20  and  C_21
REMARK                            x       y       z     vdW  Elec       q    Type
REMARK                         _______ _______ _______ _____ _____    ______ ____
ROOT
ATOM      4  C   UNL     1      26.838  51.002 -18.859  0.00  0.00    +0.000 C 
ATOM      5  C   UNL     1      25.190  51.252 -19.178  0.00  0.00    +0.000 C 
ATOM      6  O   UNL     1      24.827  50.362 -18.027  0.00  0.00    +0.000 OA
ATOM      7  C   UNL     1      25.094  49.937 -20.250  0.00  0.00    +0.000 C 
ATOM      8  O   UNL     1      23.676  50.295 -20.580  0.00  0.00    +0.000 OA
ATOM      9  C   UNL     1      25.677  50.750 -21.649  0.00  0.00    +0.000 C 
ATOM     12  O   UNL     1      27.097  50.736 -21.147  0.00  0.00    +0.000 OA
ATOM     13  C   UNL     1      27.216  51.947 -20.248  0.00  0.00    +0.000 C 
ENDROOT
BRANCH   9  10
ATOM     10  C   UNL     1      25.252  52.278 -21.216  0.00  0.00    +0.000 C 
ATOM     11  O   UNL     1      24.654  52.827 -22.330  0.00  0.00    +0.000 OA
ENDBRANCH   9  10
BRANCH   4   3
ATOM      3  O   UNL     1      26.820  52.182 -17.906  0.00  0.00    +0.000 OA
BRANCH   3   2
ATOM      1  O   UNL     1      27.626  52.188 -16.824  0.00  0.00    +0.000 OA
ATOM      2  C   UNL     1      27.550  52.052 -16.798  0.00  0.00    +0.000 C 
BRANCH   2  31
ATOM     31  C   UNL     1      27.639  51.190 -15.667  0.00  0.00    +0.000 A 
ATOM     32  C   UNL     1      27.462  49.846 -15.593  0.00  0.00    +0.000 A 
ATOM     33  C   UNL     1      27.864  49.112 -14.530  0.00  0.00    +0.000 A 
ATOM     34  O   UNL     1      27.321  47.835 -14.371  0.00  0.00    +0.000 OA
ATOM     35  C   UNL     1      28.596  49.724 -13.528  0.00  0.00    +0.000 A 
ATOM     36  O   UNL     1      28.829  49.047 -12.341  0.00  0.00    +0.000 OA
ATOM     37  C   UNL     1      28.891  51.055 -13.576  0.00  0.00    +0.000 A 
ATOM     38  O   UNL     1      29.538  51.750 -12.552  0.00  0.00    +0.000 OA
ATOM     39  C   UNL     1      28.326  51.767 -14.602  0.00  0.00    +0.000 A 
ENDBRANCH   2  31
ENDBRANCH   3   2
ENDBRANCH   4   3
BRANCH  13  14
ATOM     14  O   UNL     1      28.730  51.670 -20.049  0.00  0.00    +0.000 OA
BRANCH  14  15
ATOM     15  C   UNL     1      29.361  52.914 -19.950  0.00  0.00    +0.000 A 
ATOM     16  C   UNL     1      30.738  53.046 -20.071  0.00  0.00    +0.000 A 
ATOM     17  C   UNL     1      31.318  54.120 -20.739  0.00  0.00    +0.000 A 
ATOM     18  C   UNL     1      30.496  55.107 -21.221  0.00  0.00    +0.000 A 
ATOM     29  C   UNL     1      29.287  55.267 -20.550  0.00  0.00    +0.000 A 
ATOM     30  C   UNL     1      28.667  54.105 -20.100  0.00  0.00    +0.000 A 
BRANCH  18  19
ATOM     19  C   UNL     1      30.841  55.974 -22.353  0.00  0.00    +0.000 C 
ATOM     20  C   UNL     1      30.996  55.316 -23.505  0.00  0.00    +0.000 C 
BRANCH  20  21
ATOM     21  C   UNL     1      29.886  54.412 -23.839  0.00  0.00    +0.000 A 
ATOM     22  C   UNL     1      28.575  54.842 -23.882  0.00  0.00    +0.000 A 
ATOM     23  C   UNL     1      27.635  53.928 -24.323  0.00  0.00    +0.000 A 
ATOM     24  O   UNL     1      26.380  54.322 -24.764  0.00  0.00    +0.000 OA
ATOM     25  C   UNL     1      27.853  52.608 -23.944  0.00  0.00    +0.000 A 
ATOM     26  C   UNL     1      29.147  52.155 -23.760  0.00  0.00    +0.000 A 
ATOM     27  O   UNL     1      29.373  50.874 -23.270  0.00  0.00    +0.000 OA
ATOM     28  C   UNL     1      30.166  53.076 -23.958  0.00  0.00    +0.000 A 
ENDBRANCH  20  21
ENDBRANCH  18  19
ENDBRANCH  14  15
ENDBRANCH  13  14
TORSDOF 8
ENDMDL
