MODEL 1
REMARK VINA RESULT:      -7.8      0.000      0.000
REMARK  Name = 
REMARK  8 active torsions:
REMARK  status: ('A' for Active; 'I' for Inactive)
REMARK    1  A    between atoms: C_2  and  O_3
REMARK    2  A    between atoms: C_2  and  C_31
REMARK    3  A    between atoms: O_3  and  C_4
REMARK    4  A    between atoms: C_9  and  C_10
REMARK    5  A    between atoms: C_13  and  O_14
REMARK    6  A    between atoms: O_14  and  C_15
REMARK    7  A    between atoms: C_18  and  C_19
REMARK    8  A    between atoms: C_20  and  C_21
REMARK                            x       y       z     vdW  Elec       q    Type
REMARK                         _______ _______ _______ _____ _____    ______ ____
ROOT
ATOM      4  C   UNL     1       6.771  56.052   9.094  0.00  0.00    +0.000 C 
ATOM      5  C   UNL     1       6.402  56.141  10.749  0.00  0.00    +0.000 C 
ATOM      6  O   UNL     1       6.423  57.626  10.951  0.00  0.00    +0.000 OA
ATOM      7  C   UNL     1       4.720  55.924  10.604  0.00  0.00    +0.000 C 
ATOM      8  O   UNL     1       4.781  54.730  11.503  0.00  0.00    +0.000 OA
ATOM      9  C   UNL     1       4.939  54.959   9.208  0.00  0.00    +0.000 C 
ATOM     12  O   UNL     1       4.463  56.091   8.354  0.00  0.00    +0.000 OA
ATOM     13  C   UNL     1       5.636  57.063   8.301  0.00  0.00    +0.000 C 
ENDROOT
BRANCH   9  10
ATOM     10  C   UNL     1       3.426  54.341   9.358  0.00  0.00    +0.000 C 
ATOM     11  O   UNL     1       3.234  53.977   8.012  0.00  0.00    +0.000 OA
ENDBRANCH   9  10
BRANCH   4   3
ATOM      3  O   UNL     1       7.885  57.083   9.226  0.00  0.00    +0.000 OA
BRANCH   3   2
ATOM      1  O   UNL     1       9.167  56.940   8.759  0.00  0.00    +0.000 OA
ATOM      2  C   UNL     1       9.050  56.873   8.563  0.00  0.00    +0.000 C 
BRANCH   2  31
ATOM     31  C   UNL     1       9.500  56.757   7.209  0.00  0.00    +0.000 A 
ATOM     32  C   UNL     1      10.855  56.537   6.959  0.00  0.00    +0.000 A 
ATOM     33  C   UNL     1      11.535  57.232   5.960  0.00  0.00    +0.000 A 
ATOM     34  O   UNL     1      12.914  57.177   5.815  0.00  0.00    +0.000 OA
ATOM     35  C   UNL     1      10.882  58.224   5.233  0.00  0.00    +0.000 A 
ATOM     36  O   UNL     1      11.454  59.496   5.101  0.00  0.00    +0.000 OA
ATOM     37  C   UNL     1       9.505  58.026   5.147  0.00  0.00    +0.000 A 
ATOM     38  O   UNL     1       8.808  58.970   4.383  0.00  0.00    +0.000 OA
ATOM     39  C   UNL     1       8.851  57.204   6.064  0.00  0.00    +0.000 A 
ENDBRANCH   2  31
ENDBRANCH   3   2
ENDBRANCH   4   3
BRANCH  13  14
ATOM     14  O   UNL     1       5.084  57.895   9.461  0.00  0.00    +0.000 OA
BRANCH  14  15
ATOM     15  C   UNL     1       4.562  59.062   8.976  0.00  0.00    +0.000 A 
ATOM     16  C   UNL     1       5.274  60.090   8.375  0.00  0.00    +0.000 A 
ATOM     17  C   UNL     1       4.645  61.297   8.069  0.00  0.00    +0.000 A 
ATOM     18  C   UNL     1       3.311  61.297   7.773  0.00  0.00    +0.000 A 
ATOM     29  C   UNL     1       2.675  60.058   7.875  0.00  0.00    +0.000 A 
ATOM     30  C   UNL     1       3.212  59.025   8.637  0.00  0.00    +0.000 A 
BRANCH  18  19
ATOM     19  C   UNL     1       2.386  62.397   8.097  0.00  0.00    +0.000 C 
ATOM     20  C   UNL     1       2.866  62.845   9.269  0.00  0.00    +0.000 C 
BRANCH  20  21
ATOM     21  C   UNL     1       2.107  62.152  10.288  0.00  0.00    +0.000 A 
ATOM     22  C   UNL     1       2.576  61.404  11.320  0.00  0.00    +0.000 A 
ATOM     23  C   UNL     1       1.657  60.965  12.272  0.00  0.00    +0.000 A 
ATOM     24  O   UNL     1       1.831  59.757  12.956  0.00  0.00    +0.000 OA
ATOM     25  C   UNL     1       0.364  61.479  12.306  0.00  0.00    +0.000 A 
ATOM     26  C   UNL     1      -0.033  62.430  11.415  0.00  0.00    +0.000 A 
ATOM     27  O   UNL     1      -1.358  62.866  11.313  0.00  0.00    +0.000 OA
ATOM     28  C   UNL     1       0.937  62.872  10.551  0.00  0.00    +0.000 A 
ENDBRANCH  20  21
ENDBRANCH  18  19
ENDBRANCH  14  15
ENDBRANCH  13  14
TORSDOF 8
ENDMDL
MODEL 2
REMARK VINA RESULT:      -7.7     45.318     49.821
REMARK  Name = 
REMARK  8 active torsions:
REMARK  status: ('A' for Active; 'I' for Inactive)
REMARK    1  A    between atoms: C_2  and  O_3
REMARK    2  A    between atoms: C_2  and  C_31
REMARK    3  A    between atoms: O_3  and  C_4
REMARK    4  A    between atoms: C_9  and  C_10
REMARK    5  A    between atoms: C_13  and  O_14
REMARK    6  A    between atoms: O_14  and  C_15
REMARK    7  A    between atoms: C_18  and  C_19
REMARK    8  A    between atoms: C_20  and  C_21
REMARK                            x       y       z     vdW  Elec       q    Type
REMARK                         _______ _______ _______ _____ _____    ______ ____
ROOT
ATOM      4  C   UNL     1      24.383  80.995 -32.021  0.00  0.00    +0.000 C 
ATOM      5  C   UNL     1      23.266  81.667 -30.933  0.00  0.00    +0.000 C 
ATOM      6  O   UNL     1      23.989  81.455 -29.638  0.00  0.00    +0.000 OA
ATOM      7  C   UNL     1      23.674  83.300 -31.191  0.00  0.00    +0.000 C 
ATOM      8  O   UNL     1      22.263  83.607 -31.581  0.00  0.00    +0.000 OA
ATOM      9  C   UNL     1      24.111  82.961 -32.810  0.00  0.00    +0.000 C 
ATOM     12  O   UNL     1      25.556  83.075 -32.442  0.00  0.00    +0.000 OA
ATOM     13  C   UNL     1      25.877  81.776 -31.710  0.00  0.00    +0.000 C 
ENDROOT
BRANCH   9  10
ATOM     10  C   UNL     1      24.013  84.552 -33.204  0.00  0.00    +0.000 C 
ATOM     11  O   UNL     1      25.351  84.735 -33.599  0.00  0.00    +0.000 OA
ENDBRANCH   9  10
BRANCH   4   3
ATOM      3  O   UNL     1      24.613  79.782 -31.128  0.00  0.00    +0.000 OA
BRANCH   3   2
ATOM      1  O   UNL     1      24.993  78.531 -31.544  0.00  0.00    +0.000 OA
ATOM      2  C   UNL     1      25.143  78.660 -31.676  0.00  0.00    +0.000 C 
BRANCH   2  31
ATOM     31  C   UNL     1      26.332  78.272 -32.371  0.00  0.00    +0.000 A 
ATOM     32  C   UNL     1      27.545  78.244 -31.681  0.00  0.00    +0.000 A 
ATOM     33  C   UNL     1      28.714  78.760 -32.239  0.00  0.00    +0.000 A 
ATOM     34  O   UNL     1      29.884  78.920 -31.511  0.00  0.00    +0.000 OA
ATOM     35  C   UNL     1      28.676  79.387 -33.482  0.00  0.00    +0.000 A 
ATOM     36  O   UNL     1      29.236  80.659 -33.649  0.00  0.00    +0.000 OA
ATOM     37  C   UNL     1      27.644  78.925 -34.299  0.00  0.00    +0.000 A 
ATOM     38  O   UNL     1      27.593  79.489 -35.579  0.00  0.00    +0.000 OA
ATOM     39  C   UNL     1      26.544  78.272 -33.745  0.00  0.00    +0.000 A 
ENDBRANCH   2  31
ENDBRANCH   3   2
ENDBRANCH   4   3
BRANCH  13  14
ATOM     14  O   UNL     1      25.626  82.411 -30.339  0.00  0.00    +0.000 OA
BRANCH  14  15
ATOM     15  C   UNL     1      26.718  82.214 -29.539  0.00  0.00    +0.000 A 
ATOM     16  C   UNL     1      27.671  81.217 -29.687  0.00  0.00    +0.000 A 
ATOM     17  C   UNL     1      28.648  81.027 -28.709  0.00  0.00    +0.000 A 
ATOM     18  C   UNL     1      29.070  82.098 -27.972  0.00  0.00    +0.000 A 
ATOM     29  C   UNL     1      28.413  83.302 -28.233  0.00  0.00    +0.000 A 
ATOM     30  C   UNL     1      27.158  83.330 -28.833  0.00  0.00    +0.000 A 
BRANCH  18  19
ATOM     19  C   UNL     1      29.500  82.023 -26.565  0.00  0.00    +0.000 C 
ATOM     20  C   UNL     1      28.814  80.962 -26.107  0.00  0.00    +0.000 C 
BRANCH  20  21
ATOM     21  C   UNL     1      27.610  81.505 -25.519  0.00  0.00    +0.000 A 
ATOM     22  C   UNL     1      26.412  80.890 -25.339  0.00  0.00    +0.000 A 
ATOM     23  C   UNL     1      25.441  81.565 -24.600  0.00  0.00    +0.000 A 
ATOM     24  O   UNL     1      24.076  81.397 -24.857  0.00  0.00    +0.000 OA
ATOM     25  C   UNL     1      25.766  82.700 -23.864  0.00  0.00    +0.000 A 
ATOM     26  C   UNL     1      27.042  83.177 -23.842  0.00  0.00    +0.000 A 
ATOM     27  O   UNL     1      27.386  84.394 -23.243  0.00  0.00    +0.000 OA
ATOM     28  C   UNL     1      27.964  82.429 -24.529  0.00  0.00    +0.000 A 
ENDBRANCH  20  21
ENDBRANCH  18  19
ENDBRANCH  14  15
ENDBRANCH  13  14
TORSDOF 8
ENDMDL
MODEL 3
REMARK VINA RESULT:      -7.7      2.689      9.633
REMARK  Name = 
REMARK  8 active torsions:
REMARK  status: ('A' for Active; 'I' for Inactive)
REMARK    1  A    between atoms: C_2  and  O_3
REMARK    2  A    between atoms: C_2  and  C_31
REMARK    3  A    between atoms: O_3  and  C_4
REMARK    4  A    between atoms: C_9  and  C_10
REMARK    5  A    between atoms: C_13  and  O_14
REMARK    6  A    between atoms: O_14  and  C_15
REMARK    7  A    between atoms: C_18  and  C_19
REMARK    8  A    between atoms: C_20  and  C_21
REMARK                            x       y       z     vdW  Elec       q    Type
REMARK                         _______ _______ _______ _____ _____    ______ ____
ROOT
ATOM      4  C   UNL     1       1.646  60.837   9.926  0.00  0.00    +0.000 C 
ATOM      5  C   UNL     1       2.291  62.384   9.651  0.00  0.00    +0.000 C 
ATOM      6  O   UNL     1       3.582  62.277  10.405  0.00  0.00    +0.000 OA
ATOM      7  C   UNL     1       2.884  62.091   8.082  0.00  0.00    +0.000 C 
ATOM      8  O   UNL     1       2.059  63.217   7.544  0.00  0.00    +0.000 OA
ATOM      9  C   UNL     1       1.634  60.959   7.794  0.00  0.00    +0.000 C 
ATOM     12  O   UNL     1       2.616  59.841   7.940  0.00  0.00    +0.000 OA
ATOM     13  C   UNL     1       2.858  59.726   9.441  0.00  0.00    +0.000 C 
ENDROOT
BRANCH   9  10
ATOM     10  C   UNL     1       1.876  61.055   6.173  0.00  0.00    +0.000 C 
ATOM     11  O   UNL     1       0.550  60.816   5.767  0.00  0.00    +0.000 OA
ENDBRANCH   9  10
BRANCH   4   3
ATOM      3  O   UNL     1       2.012  60.882  11.405  0.00  0.00    +0.000 OA
BRANCH   3   2
ATOM      1  O   UNL     1       0.996  60.747  12.317  0.00  0.00    +0.000 OA
ATOM      2  C   UNL     1       1.076  60.522  12.319  0.00  0.00    +0.000 C 
BRANCH   2  31
ATOM     31  C   UNL     1       0.856  59.467  13.261  0.00  0.00    +0.000 A 
ATOM     32  C   UNL     1       1.952  58.768  13.769  0.00  0.00    +0.000 A 
ATOM     33  C   UNL     1       1.942  57.379  13.885  0.00  0.00    +0.000 A 
ATOM     34  O   UNL     1       3.076  56.646  14.202  0.00  0.00    +0.000 OA
ATOM     35  C   UNL     1       0.850  56.649  13.422  0.00  0.00    +0.000 A 
ATOM     36  O   UNL     1       1.041  55.564  12.558  0.00  0.00    +0.000 OA
ATOM     37  C   UNL     1      -0.342  57.371  13.442  0.00  0.00    +0.000 A 
ATOM     38  O   UNL     1      -1.480  56.665  13.034  0.00  0.00    +0.000 OA
ATOM     39  C   UNL     1      -0.324  58.765  13.479  0.00  0.00    +0.000 A 
ENDBRANCH   2  31
ENDBRANCH   3   2
ENDBRANCH   4   3
BRANCH  13  14
ATOM     14  O   UNL     1       4.101  60.617   9.375  0.00  0.00    +0.000 OA
BRANCH  14  15
ATOM     15  C   UNL     1       5.157  59.891   8.897  0.00  0.00    +0.000 A 
ATOM     16  C   UNL     1       6.195  60.375   8.113  0.00  0.00    +0.000 A 
ATOM     17  C   UNL     1       7.125  59.496   7.558  0.00  0.00    +0.000 A 
ATOM     18  C   UNL     1       7.418  58.334   8.213  0.00  0.00    +0.000 A 
ATOM     29  C   UNL     1       6.682  58.100   9.378  0.00  0.00    +0.000 A 
ATOM     30  C   UNL     1       5.466  58.734   9.608  0.00  0.00    +0.000 A 
BRANCH  18  19
ATOM     19  C   UNL     1       7.771  57.067   7.547  0.00  0.00    +0.000 C 
ATOM     20  C   UNL     1       8.723  56.570   8.354  0.00  0.00    +0.000 C 
BRANCH  20  21
ATOM     21  C   UNL     1       9.979  57.006   7.783  0.00  0.00    +0.000 A 
ATOM     22  C   UNL     1      11.070  57.493   8.429  0.00  0.00    +0.000 A 
ATOM     23  C   UNL     1      12.229  57.699   7.682  0.00  0.00    +0.000 A 
ATOM     24  O   UNL     1      13.137  58.714   8.001  0.00  0.00    +0.000 OA
ATOM     25  C   UNL     1      12.344  57.190   6.392  0.00  0.00    +0.000 A 
ATOM     26  C   UNL     1      11.331  56.473   5.830  0.00  0.00    +0.000 A 
ATOM     27  O   UNL     1      11.339  56.073   4.490  0.00  0.00    +0.000 OA
ATOM     28  C   UNL     1      10.249  56.244   6.642  0.00  0.00    +0.000 A 
ENDBRANCH  20  21
ENDBRANCH  18  19
ENDBRANCH  14  15
ENDBRANCH  13  14
TORSDOF 8
ENDMDL
MODEL 4
REMARK VINA RESULT:      -7.7      2.671      4.076
REMARK  Name = 
REMARK  8 active torsions:
REMARK  status: ('A' for Active; 'I' for Inactive)
REMARK    1  A    between atoms: C_2  and  O_3
REMARK    2  A    between atoms: C_2  and  C_31
REMARK    3  A    between atoms: O_3  and  C_4
REMARK    4  A    between atoms: C_9  and  C_10
REMARK    5  A    between atoms: C_13  and  O_14
REMARK    6  A    between atoms: O_14  and  C_15
REMARK    7  A    between atoms: C_18  and  C_19
REMARK    8  A    between atoms: C_20  and  C_21
REMARK                            x       y       z     vdW  Elec       q    Type
REMARK                         _______ _______ _______ _____ _____    ______ ____
ROOT
ATOM      4  C   UNL     1       7.953  59.217   6.279  0.00  0.00    +0.000 C 
ATOM      5  C   UNL     1       7.218  57.839   5.614  0.00  0.00    +0.000 C 
ATOM      6  O   UNL     1       6.190  57.547   6.665  0.00  0.00    +0.000 OA
ATOM      7  C   UNL     1       6.221  58.648   4.496  0.00  0.00    +0.000 C 
ATOM      8  O   UNL     1       6.834  57.879   3.369  0.00  0.00    +0.000 OA
ATOM      9  C   UNL     1       7.370  59.906   4.343  0.00  0.00    +0.000 C 
ATOM     12  O   UNL     1       6.496  60.801   5.162  0.00  0.00    +0.000 OA
ATOM     13  C   UNL     1       6.683  60.324   6.598  0.00  0.00    +0.000 C 
ENDROOT
BRANCH   9  10
ATOM     10  C   UNL     1       6.685  60.405   2.937  0.00  0.00    +0.000 C 
ATOM     11  O   UNL     1       7.685  61.316   2.549  0.00  0.00    +0.000 OA
ENDBRANCH   9  10
BRANCH   4   3
ATOM      3  O   UNL     1       8.012  58.590   7.667  0.00  0.00    +0.000 OA
BRANCH   3   2
ATOM      1  O   UNL     1       9.158  58.600   8.421  0.00  0.00    +0.000 OA
ATOM      2  C   UNL     1       9.221  58.435   8.261  0.00  0.00    +0.000 C 
BRANCH   2  31
ATOM     31  C   UNL     1      10.512  57.913   7.930  0.00  0.00    +0.000 A 
ATOM     32  C   UNL     1      11.421  58.726   7.251  0.00  0.00    +0.000 A 
ATOM     33  C   UNL     1      12.174  58.243   6.181  0.00  0.00    +0.000 A 
ATOM     34  O   UNL     1      12.937  59.069   5.370  0.00  0.00    +0.000 OA
ATOM     35  C   UNL     1      11.977  56.944   5.720  0.00  0.00    +0.000 A 
ATOM     36  O   UNL     1      11.754  56.703   4.359  0.00  0.00    +0.000 OA
ATOM     37  C   UNL     1      11.506  56.076   6.705  0.00  0.00    +0.000 A 
ATOM     38  O   UNL     1      11.339  54.745   6.304  0.00  0.00    +0.000 OA
ATOM     39  C   UNL     1      10.886  56.576   7.849  0.00  0.00    +0.000 A 
ENDBRANCH   2  31
ENDBRANCH   3   2
ENDBRANCH   4   3
BRANCH  13  14
ATOM     14  O   UNL     1       5.448  59.422   6.528  0.00  0.00    +0.000 OA
BRANCH  14  15
ATOM     15  C   UNL     1       4.436  59.979   7.259  0.00  0.00    +0.000 A 
ATOM     16  C   UNL     1       3.081  59.720   7.111  0.00  0.00    +0.000 A 
ATOM     17  C   UNL     1       2.139  60.474   7.811  0.00  0.00    +0.000 A 
ATOM     18  C   UNL     1       2.476  60.997   9.028  0.00  0.00    +0.000 A 
ATOM     29  C   UNL     1       3.794  60.775   9.432  0.00  0.00    +0.000 A 
ATOM     30  C   UNL     1       4.793  60.464   8.514  0.00  0.00    +0.000 A 
BRANCH  18  19
ATOM     19  C   UNL     1       1.969  62.277   9.553  0.00  0.00    +0.000 C 
ATOM     20  C   UNL     1       2.189  62.157  10.873  0.00  0.00    +0.000 C 
BRANCH  20  21
ATOM     21  C   UNL     1       0.952  61.652  11.427  0.00  0.00    +0.000 A 
ATOM     22  C   UNL     1       0.787  60.752  12.430  0.00  0.00    +0.000 A 
ATOM     23  C   UNL     1      -0.507  60.537  12.903  0.00  0.00    +0.000 A 
ATOM     24  O   UNL     1      -0.906  59.295  13.409  0.00  0.00    +0.000 OA
ATOM     25  C   UNL     1      -1.547  61.388  12.544  0.00  0.00    +0.000 A 
ATOM     26  C   UNL     1      -1.326  62.456  11.728  0.00  0.00    +0.000 A 
ATOM     27  O   UNL     1      -2.362  63.248  11.220  0.00  0.00    +0.000 OA
ATOM     28  C   UNL     1      -0.021  62.655  11.355  0.00  0.00    +0.000 A 
ENDBRANCH  20  21
ENDBRANCH  18  19
ENDBRANCH  14  15
ENDBRANCH  13  14
TORSDOF 8
ENDMDL
MODEL 5
REMARK VINA RESULT:      -7.6      2.854      4.619
REMARK  Name = 
REMARK  8 active torsions:
REMARK  status: ('A' for Active; 'I' for Inactive)
REMARK    1  A    between atoms: C_2  and  O_3
REMARK    2  A    between atoms: C_2  and  C_31
REMARK    3  A    between atoms: O_3  and  C_4
REMARK    4  A    between atoms: C_9  and  C_10
REMARK    5  A    between atoms: C_13  and  O_14
REMARK    6  A    between atoms: O_14  and  C_15
REMARK    7  A    between atoms: C_18  and  C_19
REMARK    8  A    between atoms: C_20  and  C_21
REMARK                            x       y       z     vdW  Elec       q    Type
REMARK                         _______ _______ _______ _____ _____    ______ ____
ROOT
ATOM      4  C   UNL     1       6.965  60.194   6.719  0.00  0.00    +0.000 C 
ATOM      5  C   UNL     1       6.403  58.720   6.092  0.00  0.00    +0.000 C 
ATOM      6  O   UNL     1       5.970  58.037   7.353  0.00  0.00    +0.000 OA
ATOM      7  C   UNL     1       4.884  59.278   5.566  0.00  0.00    +0.000 C 
ATOM      8  O   UNL     1       5.187  58.835   4.170  0.00  0.00    +0.000 OA
ATOM      9  C   UNL     1       5.527  60.836   5.276  0.00  0.00    +0.000 C 
ATOM     12  O   UNL     1       4.842  61.345   6.504  0.00  0.00    +0.000 OA
ATOM     13  C   UNL     1       5.682  60.826   7.665  0.00  0.00    +0.000 C 
ENDROOT
BRANCH   9  10
ATOM     10  C   UNL     1       4.251  61.220   4.317  0.00  0.00    +0.000 C 
ATOM     11  O   UNL     1       4.326  62.619   4.451  0.00  0.00    +0.000 OA
ENDBRANCH   9  10
BRANCH   4   3
ATOM      3  O   UNL     1       7.710  59.498   7.852  0.00  0.00    +0.000 OA
BRANCH   3   2
ATOM      1  O   UNL     1       9.051  59.783   7.906  0.00  0.00    +0.000 OA
ATOM      2  C   UNL     1       9.065  59.548   7.868  0.00  0.00    +0.000 C 
BRANCH   2  31
ATOM     31  C   UNL     1      10.167  58.749   7.426  0.00  0.00    +0.000 A 
ATOM     32  C   UNL     1      10.357  57.483   7.983  0.00  0.00    +0.000 A 
ATOM     33  C   UNL     1      11.620  57.038   8.369  0.00  0.00    +0.000 A 
ATOM     34  O   UNL     1      11.814  55.872   9.096  0.00  0.00    +0.000 OA
ATOM     35  C   UNL     1      12.720  57.888   8.271  0.00  0.00    +0.000 A 
ATOM     36  O   UNL     1      13.563  58.081   9.372  0.00  0.00    +0.000 OA
ATOM     37  C   UNL     1      12.582  58.852   7.273  0.00  0.00    +0.000 A 
ATOM     38  O   UNL     1      13.682  59.700   7.101  0.00  0.00    +0.000 OA
ATOM     39  C   UNL     1      11.320  59.185   6.783  0.00  0.00    +0.000 A 
ENDBRANCH   2  31
ENDBRANCH   3   2
ENDBRANCH   4   3
BRANCH  13  14
ATOM     14  O   UNL     1       4.786  59.598   7.849  0.00  0.00    +0.000 OA
BRANCH  14  15
ATOM     15  C   UNL     1       3.757  59.907   8.695  0.00  0.00    +0.000 A 
ATOM     16  C   UNL     1       2.822  59.018   9.206  0.00  0.00    +0.000 A 
ATOM     17  C   UNL     1       1.727  59.488   9.930  0.00  0.00    +0.000 A 
ATOM     18  C   UNL     1       1.850  60.641  10.652  0.00  0.00    +0.000 A 
ATOM     29  C   UNL     1       3.080  61.293  10.535  0.00  0.00    +0.000 A 
ATOM     30  C   UNL     1       3.925  61.062   9.454  0.00  0.00    +0.000 A 
BRANCH  18  19
ATOM     19  C   UNL     1       0.759  61.606  10.875  0.00  0.00    +0.000 C 
ATOM     20  C   UNL     1       0.608  61.571  12.210  0.00  0.00    +0.000 C 
BRANCH  20  21
ATOM     21  C   UNL     1      -0.443  60.606  12.454  0.00  0.00    +0.000 A 
ATOM     22  C   UNL     1      -1.466  60.254  11.634  0.00  0.00    +0.000 A 
ATOM     23  C   UNL     1      -2.268  59.181  12.021  0.00  0.00    +0.000 A 
ATOM     24  O   UNL     1      -3.623  59.117  11.678  0.00  0.00    +0.000 OA
ATOM     25  C   UNL     1      -1.885  58.346  13.066  0.00  0.00    +0.000 A 
ATOM     26  C   UNL     1      -0.715  58.552  13.732  0.00  0.00    +0.000 A 
ATOM     27  O   UNL     1      -0.361  57.836  14.881  0.00  0.00    +0.000 OA
ATOM     28  C   UNL     1       0.062  59.579  13.258  0.00  0.00    +0.000 A 
ENDBRANCH  20  21
ENDBRANCH  18  19
ENDBRANCH  14  15
ENDBRANCH  13  14
TORSDOF 8
ENDMDL
MODEL 6
REMARK VINA RESULT:      -7.5     27.593     31.663
REMARK  Name = 
REMARK  8 active torsions:
REMARK  status: ('A' for Active; 'I' for Inactive)
REMARK    1  A    between atoms: C_2  and  O_3
REMARK    2  A    between atoms: C_2  and  C_31
REMARK    3  A    between atoms: O_3  and  C_4
REMARK    4  A    between atoms: C_9  and  C_10
REMARK    5  A    between atoms: C_13  and  O_14
REMARK    6  A    between atoms: O_14  and  C_15
REMARK    7  A    between atoms: C_18  and  C_19
REMARK    8  A    between atoms: C_20  and  C_21
REMARK                            x       y       z     vdW  Elec       q    Type
REMARK                         _______ _______ _______ _____ _____    ______ ____
ROOT
ATOM      4  C   UNL     1       6.392  40.502 -14.976  0.00  0.00    +0.000 C 
ATOM      5  C   UNL     1       4.908  40.460 -15.802  0.00  0.00    +0.000 C 
ATOM      6  O   UNL     1       4.959  41.777 -16.515  0.00  0.00    +0.000 OA
ATOM      7  C   UNL     1       5.406  39.454 -17.081  0.00  0.00    +0.000 C 
ATOM      8  O   UNL     1       4.331  38.469 -16.745  0.00  0.00    +0.000 OA
ATOM      9  C   UNL     1       6.530  38.666 -16.059  0.00  0.00    +0.000 C 
ATOM     12  O   UNL     1       7.649  39.398 -16.730  0.00  0.00    +0.000 OA
ATOM     13  C   UNL     1       7.587  40.812 -16.165  0.00  0.00    +0.000 C 
ENDROOT
BRANCH   9  10
ATOM     10  C   UNL     1       6.638  37.401 -17.098  0.00  0.00    +0.000 C 
ATOM     11  O   UNL     1       8.017  37.156 -16.960  0.00  0.00    +0.000 OA
ENDBRANCH   9  10
BRANCH   4   3
ATOM      3  O   UNL     1       6.177  41.947 -14.541  0.00  0.00    +0.000 OA
BRANCH   3   2
ATOM      1  O   UNL     1       6.793  42.314 -13.372  0.00  0.00    +0.000 OA
ATOM      2  C   UNL     1       6.926  42.440 -13.524  0.00  0.00    +0.000 C 
BRANCH   2  31
ATOM     31  C   UNL     1       7.813  43.539 -13.287  0.00  0.00    +0.000 A 
ATOM     32  C   UNL     1       7.455  44.513 -12.354  0.00  0.00    +0.000 A 
ATOM     33  C   UNL     1       7.621  45.872 -12.618  0.00  0.00    +0.000 A 
ATOM     34  O   UNL     1       7.102  46.863 -11.797  0.00  0.00    +0.000 OA
ATOM     35  C   UNL     1       8.086  46.289 -13.863  0.00  0.00    +0.000 A 
ATOM     36  O   UNL     1       7.391  47.267 -14.585  0.00  0.00    +0.000 OA
ATOM     37  C   UNL     1       8.888  45.340 -14.496  0.00  0.00    +0.000 A 
ATOM     38  O   UNL     1       9.422  45.731 -15.730  0.00  0.00    +0.000 OA
ATOM     39  C   UNL     1       8.826  43.999 -14.121  0.00  0.00    +0.000 A 
ENDBRANCH   2  31
ENDBRANCH   3   2
ENDBRANCH   4   3
BRANCH  13  14
ATOM     14  O   UNL     1       6.745  41.315 -17.341  0.00  0.00    +0.000 OA
BRANCH  14  15
ATOM     15  C   UNL     1       7.518  42.102 -18.150  0.00  0.00    +0.000 A 
ATOM     16  C   UNL     1       8.660  42.792 -17.772  0.00  0.00    +0.000 A 
ATOM     17  C   UNL     1       9.265  43.688 -18.654  0.00  0.00    +0.000 A 
ATOM     18  C   UNL     1       9.167  43.468 -19.999  0.00  0.00    +0.000 A 
ATOM     29  C   UNL     1       8.388  42.370 -20.372  0.00  0.00    +0.000 A 
ATOM     30  C   UNL     1       7.437  41.829 -19.513  0.00  0.00    +0.000 A 
BRANCH  18  19
ATOM     19  C   UNL     1       9.101  44.534 -21.015  0.00  0.00    +0.000 C 
ATOM     20  C   UNL     1       9.575  43.919 -22.111  0.00  0.00    +0.000 C 
BRANCH  20  21
ATOM     21  C   UNL     1      10.989  44.226 -22.147  0.00  0.00    +0.000 A 
ATOM     22  C   UNL     1      11.971  43.581 -22.827  0.00  0.00    +0.000 A 
ATOM     23  C   UNL     1      13.240  44.159 -22.836  0.00  0.00    +0.000 A 
ATOM     24  O   UNL     1      14.400  43.379 -22.908  0.00  0.00    +0.000 OA
ATOM     25  C   UNL     1      13.434  45.462 -22.388  0.00  0.00    +0.000 A 
ATOM     26  C   UNL     1      12.388  46.208 -21.936  0.00  0.00    +0.000 A 
ATOM     27  O   UNL     1      12.554  47.461 -21.338  0.00  0.00    +0.000 OA
ATOM     28  C   UNL     1      11.156  45.609 -22.020  0.00  0.00    +0.000 A 
ENDBRANCH  20  21
ENDBRANCH  18  19
ENDBRANCH  14  15
ENDBRANCH  13  14
TORSDOF 8
ENDMDL
MODEL 7
REMARK VINA RESULT:      -7.4      1.863      2.668
REMARK  Name = 
REMARK  8 active torsions:
REMARK  status: ('A' for Active; 'I' for Inactive)
REMARK    1  A    between atoms: C_2  and  O_3
REMARK    2  A    between atoms: C_2  and  C_31
REMARK    3  A    between atoms: O_3  and  C_4
REMARK    4  A    between atoms: C_9  and  C_10
REMARK    5  A    between atoms: C_13  and  O_14
REMARK    6  A    between atoms: O_14  and  C_15
REMARK    7  A    between atoms: C_18  and  C_19
REMARK    8  A    between atoms: C_20  and  C_21
REMARK                            x       y       z     vdW  Elec       q    Type
REMARK                         _______ _______ _______ _____ _____    ______ ____
ROOT
ATOM      4  C   UNL     1       6.852  57.562   8.068  0.00  0.00    +0.000 C 
ATOM      5  C   UNL     1       6.648  56.853   9.597  0.00  0.00    +0.000 C 
ATOM      6  O   UNL     1       6.260  58.055  10.403  0.00  0.00    +0.000 OA
ATOM      7  C   UNL     1       5.094  56.211   9.328  0.00  0.00    +0.000 C 
ATOM      8  O   UNL     1       5.591  54.836   9.645  0.00  0.00    +0.000 OA
ATOM      9  C   UNL     1       5.435  56.016   7.663  0.00  0.00    +0.000 C 
ATOM     12  O   UNL     1       4.566  57.192   7.349  0.00  0.00    +0.000 OA
ATOM     13  C   UNL     1       5.397  58.409   7.740  0.00  0.00    +0.000 C 
ENDROOT
BRANCH   9  10
ATOM     10  C   UNL     1       4.190  54.960   7.498  0.00  0.00    +0.000 C 
ATOM     11  O   UNL     1       4.751  54.158   6.487  0.00  0.00    +0.000 OA
ENDBRANCH   9  10
BRANCH   4   3
ATOM      3  O   UNL     1       7.628  58.738   8.650  0.00  0.00    +0.000 OA
BRANCH   3   2
ATOM      1  O   UNL     1       8.754  59.259   8.065  0.00  0.00    +0.000 OA
ATOM      2  C   UNL     1       8.839  59.044   8.123  0.00  0.00    +0.000 C 
BRANCH   2  31
ATOM     31  C   UNL     1      10.004  58.355   7.656  0.00  0.00    +0.000 A 
ATOM     32  C   UNL     1      10.329  57.115   8.208  0.00  0.00    +0.000 A 
ATOM     33  C   UNL     1      11.638  56.796   8.565  0.00  0.00    +0.000 A 
ATOM     34  O   UNL     1      11.961  55.657   9.287  0.00  0.00    +0.000 OA
ATOM     35  C   UNL     1      12.647  57.749   8.441  0.00  0.00    +0.000 A 
ATOM     36  O   UNL     1      13.492  58.027   9.522  0.00  0.00    +0.000 OA
ATOM     37  C   UNL     1      12.393  58.692   7.447  0.00  0.00    +0.000 A 
ATOM     38  O   UNL     1      13.400  59.644   7.249  0.00  0.00    +0.000 OA
ATOM     39  C   UNL     1      11.093  58.900   6.986  0.00  0.00    +0.000 A 
ENDBRANCH   2  31
ENDBRANCH   3   2
ENDBRANCH   4   3
BRANCH  13  14
ATOM     14  O   UNL     1       4.752  58.484   9.126  0.00  0.00    +0.000 OA
BRANCH  14  15
ATOM     15  C   UNL     1       3.908  59.559   9.178  0.00  0.00    +0.000 A 
ATOM     16  C   UNL     1       4.275  60.877   9.414  0.00  0.00    +0.000 A 
ATOM     17  C   UNL     1       3.299  61.856   9.601  0.00  0.00    +0.000 A 
ATOM     18  C   UNL     1       2.088  61.717   8.984  0.00  0.00    +0.000 A 
ATOM     29  C   UNL     1       1.918  60.536   8.257  0.00  0.00    +0.000 A 
ATOM     30  C   UNL     1       2.700  59.412   8.503  0.00  0.00    +0.000 A 
BRANCH  18  19
ATOM     19  C   UNL     1       0.808  62.182   9.546  0.00  0.00    +0.000 C 
ATOM     20  C   UNL     1       1.131  62.447  10.823  0.00  0.00    +0.000 C 
BRANCH  20  21
ATOM     21  C   UNL     1       0.806  61.245  11.560  0.00  0.00    +0.000 A 
ATOM     22  C   UNL     1       0.134  60.148  11.124  0.00  0.00    +0.000 A 
ATOM     23  C   UNL     1       0.080  59.041  11.970  0.00  0.00    +0.000 A 
ATOM     24  O   UNL     1      -1.015  58.171  11.969  0.00  0.00    +0.000 OA
ATOM     25  C   UNL     1       0.891  58.967  13.099  0.00  0.00    +0.000 A 
ATOM     26  C   UNL     1       1.761  59.970  13.401  0.00  0.00    +0.000 A 
ATOM     27  O   UNL     1       2.483  60.011  14.599  0.00  0.00    +0.000 OA
ATOM     28  C   UNL     1       1.819  60.996  12.492  0.00  0.00    +0.000 A 
ENDBRANCH  20  21
ENDBRANCH  18  19
ENDBRANCH  14  15
ENDBRANCH  13  14
TORSDOF 8
ENDMDL
MODEL 8
REMARK VINA RESULT:      -7.3     17.241     20.399
REMARK  Name = 
REMARK  8 active torsions:
REMARK  status: ('A' for Active; 'I' for Inactive)
REMARK    1  A    between atoms: C_2  and  O_3
REMARK    2  A    between atoms: C_2  and  C_31
REMARK    3  A    between atoms: O_3  and  C_4
REMARK    4  A    between atoms: C_9  and  C_10
REMARK    5  A    between atoms: C_13  and  O_14
REMARK    6  A    between atoms: O_14  and  C_15
REMARK    7  A    between atoms: C_18  and  C_19
REMARK    8  A    between atoms: C_20  and  C_21
REMARK                            x       y       z     vdW  Elec       q    Type
REMARK                         _______ _______ _______ _____ _____    ______ ____
ROOT
ATOM      4  C   UNL     1      18.815  66.009  13.117  0.00  0.00    +0.000 C 
ATOM      5  C   UNL     1      17.456  66.903  13.603  0.00  0.00    +0.000 C 
ATOM      6  O   UNL     1      18.051  67.719  14.710  0.00  0.00    +0.000 OA
ATOM      7  C   UNL     1      17.515  68.069  12.363  0.00  0.00    +0.000 C 
ATOM      8  O   UNL     1      16.126  67.709  11.938  0.00  0.00    +0.000 OA
ATOM      9  C   UNL     1      18.204  66.930  11.289  0.00  0.00    +0.000 C 
ATOM     12  O   UNL     1      19.533  67.601  11.434  0.00  0.00    +0.000 OA
ATOM     13  C   UNL     1      20.048  67.157  12.798  0.00  0.00    +0.000 C 
ENDROOT
BRANCH   9  10
ATOM     10  C   UNL     1      17.797  67.855   9.996  0.00  0.00    +0.000 C 
ATOM     11  O   UNL     1      17.567  66.812   9.079  0.00  0.00    +0.000 OA
ENDBRANCH   9  10
BRANCH   4   3
ATOM      3  O   UNL     1      19.206  65.706  14.558  0.00  0.00    +0.000 OA
BRANCH   3   2
ATOM      1  O   UNL     1      19.362  64.354  14.729  0.00  0.00    +0.000 OA
ATOM      2  C   UNL     1      19.515  64.429  14.895  0.00  0.00    +0.000 C 
BRANCH   2  31
ATOM     31  C   UNL     1      20.105  63.729  15.996  0.00  0.00    +0.000 A 
ATOM     32  C   UNL     1      20.916  62.622  15.743  0.00  0.00    +0.000 A 
ATOM     33  C   UNL     1      20.806  61.451  16.491  0.00  0.00    +0.000 A 
ATOM     34  O   UNL     1      21.457  60.277  16.144  0.00  0.00    +0.000 OA
ATOM     35  C   UNL     1      19.821  61.339  17.470  0.00  0.00    +0.000 A 
ATOM     36  O   UNL     1      18.964  60.231  17.487  0.00  0.00    +0.000 OA
ATOM     37  C   UNL     1      19.444  62.566  18.014  0.00  0.00    +0.000 A 
ATOM     38  O   UNL     1      18.492  62.503  19.038  0.00  0.00    +0.000 OA
ATOM     39  C   UNL     1      19.695  63.751  17.324  0.00  0.00    +0.000 A 
ENDBRANCH   2  31
ENDBRANCH   3   2
ENDBRANCH   4   3
BRANCH  13  14
ATOM     14  O   UNL     1      19.502  68.411  13.485  0.00  0.00    +0.000 OA
BRANCH  14  15
ATOM     15  C   UNL     1      20.522  69.300  13.689  0.00  0.00    +0.000 A 
ATOM     16  C   UNL     1      21.760  69.283  13.063  0.00  0.00    +0.000 A 
ATOM     17  C   UNL     1      22.770  70.150  13.478  0.00  0.00    +0.000 A 
ATOM     18  C   UNL     1      22.432  71.362  14.009  0.00  0.00    +0.000 A 
ATOM     29  C   UNL     1      21.061  71.593  14.151  0.00  0.00    +0.000 A 
ATOM     30  C   UNL     1      20.148  70.545  14.187  0.00  0.00    +0.000 A 
BRANCH  18  19
ATOM     19  C   UNL     1      23.197  72.054  15.061  0.00  0.00    +0.000 C 
ATOM     20  C   UNL     1      22.775  73.324  14.939  0.00  0.00    +0.000 C 
BRANCH  20  21
ATOM     21  C   UNL     1      23.737  73.969  14.073  0.00  0.00    +0.000 A 
ATOM     22  C   UNL     1      23.500  74.820  13.041  0.00  0.00    +0.000 A 
ATOM     23  C   UNL     1      24.597  75.445  12.449  0.00  0.00    +0.000 A 
ATOM     24  O   UNL     1      24.601  75.789  11.093  0.00  0.00    +0.000 OA
ATOM     25  C   UNL     1      25.851  75.400  13.049  0.00  0.00    +0.000 A 
ATOM     26  C   UNL     1      26.037  74.751  14.232  0.00  0.00    +0.000 A 
ATOM     27  O   UNL     1      27.302  74.550  14.795  0.00  0.00    +0.000 OA
ATOM     28  C   UNL     1      24.907  74.219  14.799  0.00  0.00    +0.000 A 
ENDBRANCH  20  21
ENDBRANCH  18  19
ENDBRANCH  14  15
ENDBRANCH  13  14
TORSDOF 8
ENDMDL
MODEL 9
REMARK VINA RESULT:      -7.3      2.532      9.567
REMARK  Name = 
REMARK  8 active torsions:
REMARK  status: ('A' for Active; 'I' for Inactive)
REMARK    1  A    between atoms: C_2  and  O_3
REMARK    2  A    between atoms: C_2  and  C_31
REMARK    3  A    between atoms: O_3  and  C_4
REMARK    4  A    between atoms: C_9  and  C_10
REMARK    5  A    between atoms: C_13  and  O_14
REMARK    6  A    between atoms: O_14  and  C_15
REMARK    7  A    between atoms: C_18  and  C_19
REMARK    8  A    between atoms: C_20  and  C_21
REMARK                            x       y       z     vdW  Elec       q    Type
REMARK                         _______ _______ _______ _____ _____    ______ ____
ROOT
ATOM      4  C   UNL     1       2.982  56.976  10.802  0.00  0.00    +0.000 C 
ATOM      5  C   UNL     1       2.468  56.137   9.418  0.00  0.00    +0.000 C 
ATOM      6  O   UNL     1       3.226  56.875   8.357  0.00  0.00    +0.000 OA
ATOM      7  C   UNL     1       3.502  54.795   9.587  0.00  0.00    +0.000 C 
ATOM      8  O   UNL     1       2.325  53.871   9.603  0.00  0.00    +0.000 OA
ATOM      9  C   UNL     1       3.474  54.955  11.290  0.00  0.00    +0.000 C 
ATOM     12  O   UNL     1       4.861  55.514  11.258  0.00  0.00    +0.000 OA
ATOM     13  C   UNL     1       4.696  56.947  10.765  0.00  0.00    +0.000 C 
ENDROOT
BRANCH   9  10
ATOM     10  C   UNL     1       4.020  53.419  11.477  0.00  0.00    +0.000 C 
ATOM     11  O   UNL     1       3.601  53.226  12.806  0.00  0.00    +0.000 OA
ENDBRANCH   9  10
BRANCH   4   3
ATOM      3  O   UNL     1       2.800  58.328  10.123  0.00  0.00    +0.000 OA
BRANCH   3   2
ATOM      1  O   UNL     1       2.153  59.441  10.596  0.00  0.00    +0.000 OA
ATOM      2  C   UNL     1       2.074  59.283  10.756  0.00  0.00    +0.000 C 
BRANCH   2  31
ATOM     31  C   UNL     1       1.462  59.484  12.034  0.00  0.00    +0.000 A 
ATOM     32  C   UNL     1       1.342  58.404  12.910  0.00  0.00    +0.000 A 
ATOM     33  C   UNL     1       0.166  58.165  13.618  0.00  0.00    +0.000 A 
ATOM     34  O   UNL     1      -0.049  57.002  14.343  0.00  0.00    +0.000 OA
ATOM     35  C   UNL     1      -0.951  58.970  13.406  0.00  0.00    +0.000 A 
ATOM     36  O   UNL     1      -2.196  58.392  13.127  0.00  0.00    +0.000 OA
ATOM     37  C   UNL     1      -0.628  60.258  12.982  0.00  0.00    +0.000 A 
ATOM     38  O   UNL     1      -1.714  61.123  12.803  0.00  0.00    +0.000 OA
ATOM     39  C   UNL     1       0.616  60.522  12.409  0.00  0.00    +0.000 A 
ENDBRANCH   2  31
ENDBRANCH   3   2
ENDBRANCH   4   3
BRANCH  13  14
ATOM     14  O   UNL     1       4.977  56.548   9.313  0.00  0.00    +0.000 OA
BRANCH  14  15
ATOM     15  C   UNL     1       6.204  57.022   8.940  0.00  0.00    +0.000 A 
ATOM     16  C   UNL     1       6.689  58.303   9.163  0.00  0.00    +0.000 A 
ATOM     17  C   UNL     1       7.895  58.708   8.591  0.00  0.00    +0.000 A 
ATOM     18  C   UNL     1       8.868  57.777   8.357  0.00  0.00    +0.000 A 
ATOM     29  C   UNL     1       8.521  56.458   8.661  0.00  0.00    +0.000 A 
ATOM     30  C   UNL     1       7.192  56.059   8.752  0.00  0.00    +0.000 A 
BRANCH  18  19
ATOM     19  C   UNL     1       9.817  57.829   7.231  0.00  0.00    +0.000 C 
ATOM     20  C   UNL     1      10.691  56.857   7.543  0.00  0.00    +0.000 C 
BRANCH  20  21
ATOM     21  C   UNL     1      11.770  57.517   8.243  0.00  0.00    +0.000 A 
ATOM     22  C   UNL     1      12.490  57.058   9.300  0.00  0.00    +0.000 A 
ATOM     23  C   UNL     1      13.593  57.807   9.708  0.00  0.00    +0.000 A 
ATOM     24  O   UNL     1      14.001  57.842  11.045  0.00  0.00    +0.000 OA
ATOM     25  C   UNL     1      14.088  58.837   8.914  0.00  0.00    +0.000 A 
ATOM     26  C   UNL     1      13.511  59.135   7.716  0.00  0.00    +0.000 A 
ATOM     27  O   UNL     1      13.876  60.253   6.957  0.00  0.00    +0.000 OA
ATOM     28  C   UNL     1      12.477  58.317   7.339  0.00  0.00    +0.000 A 
ENDBRANCH  20  21
ENDBRANCH  18  19
ENDBRANCH  14  15
ENDBRANCH  13  14
TORSDOF 8
ENDMDL
MODEL 10
REMARK VINA RESULT:      -7.2     26.580     30.439
REMARK  Name = 
REMARK  8 active torsions:
REMARK  status: ('A' for Active; 'I' for Inactive)
REMARK    1  A    between atoms: C_2  and  O_3
REMARK    2  A    between atoms: C_2  and  C_31
REMARK    3  A    between atoms: O_3  and  C_4
REMARK    4  A    between atoms: C_9  and  C_10
REMARK    5  A    between atoms: C_13  and  O_14
REMARK    6  A    between atoms: O_14  and  C_15
REMARK    7  A    between atoms: C_18  and  C_19
REMARK    8  A    between atoms: C_20  and  C_21
REMARK                            x       y       z     vdW  Elec       q    Type
REMARK                         _______ _______ _______ _____ _____    ______ ____
ROOT
ATOM      4  C   UNL     1      24.313  35.814  21.107  0.00  0.00    +0.000 C 
ATOM      5  C   UNL     1      25.647  36.070  22.126  0.00  0.00    +0.000 C 
ATOM      6  O   UNL     1      26.458  37.003  21.279  0.00  0.00    +0.000 OA
ATOM      7  C   UNL     1      24.917  37.219  23.148  0.00  0.00    +0.000 C 
ATOM      8  O   UNL     1      25.191  36.356  24.339  0.00  0.00    +0.000 OA
ATOM      9  C   UNL     1      23.384  36.499  22.905  0.00  0.00    +0.000 C 
ATOM     12  O   UNL     1      22.994  37.636  22.014  0.00  0.00    +0.000 OA
ATOM     13  C   UNL     1      23.722  37.371  20.700  0.00  0.00    +0.000 C 
ENDROOT
BRANCH   9  10
ATOM     10  C   UNL     1      22.785  37.245  24.239  0.00  0.00    +0.000 C 
ATOM     11  O   UNL     1      21.856  36.256  24.611  0.00  0.00    +0.000 OA
ENDBRANCH   9  10
BRANCH   4   3
ATOM      3  O   UNL     1      25.205  35.625  19.886  0.00  0.00    +0.000 OA
BRANCH   3   2
ATOM      1  O   UNL     1      24.781  34.516  19.199  0.00  0.00    +0.000 OA
ATOM      2  C   UNL     1      24.965  34.577  19.060  0.00  0.00    +0.000 C 
BRANCH   2  31
ATOM     31  C   UNL     1      25.666  33.817  18.069  0.00  0.00    +0.000 A 
ATOM     32  C   UNL     1      25.450  34.095  16.719  0.00  0.00    +0.000 A 
ATOM     33  C   UNL     1      25.275  33.077  15.783  0.00  0.00    +0.000 A 
ATOM     34  O   UNL     1      24.871  33.321  14.478  0.00  0.00    +0.000 OA
ATOM     35  C   UNL     1      25.241  31.748  16.197  0.00  0.00    +0.000 A 
ATOM     36  O   UNL     1      24.190  30.912  15.802  0.00  0.00    +0.000 OA
ATOM     37  C   UNL     1      25.961  31.518  17.368  0.00  0.00    +0.000 A 
ATOM     38  O   UNL     1      25.999  30.187  17.800  0.00  0.00    +0.000 OA
ATOM     39  C   UNL     1      26.264  32.572  18.229  0.00  0.00    +0.000 A 
ENDBRANCH   2  31
ENDBRANCH   3   2
ENDBRANCH   4   3
BRANCH  13  14
ATOM     14  O   UNL     1      24.896  38.271  21.095  0.00  0.00    +0.000 OA
BRANCH  14  15
ATOM     15  C   UNL     1      24.620  39.562  20.736  0.00  0.00    +0.000 A 
ATOM     16  C   UNL     1      24.827  40.690  21.517  0.00  0.00    +0.000 A 
ATOM     17  C   UNL     1      24.354  41.934  21.096  0.00  0.00    +0.000 A 
ATOM     18  C   UNL     1      24.260  42.192  19.758  0.00  0.00    +0.000 A 
ATOM     29  C   UNL     1      24.593  41.128  18.916  0.00  0.00    +0.000 A 
ATOM     30  C   UNL     1      24.575  39.812  19.367  0.00  0.00    +0.000 A 
BRANCH  18  19
ATOM     19  C   UNL     1      23.230  43.050  19.145  0.00  0.00    +0.000 C 
ATOM     20  C   UNL     1      23.640  43.129  17.868  0.00  0.00    +0.000 C 
BRANCH  20  21
ATOM     21  C   UNL     1      24.431  44.338  17.790  0.00  0.00    +0.000 A 
ATOM     22  C   UNL     1      25.191  44.908  18.760  0.00  0.00    +0.000 A 
ATOM     23  C   UNL     1      25.994  45.990  18.403  0.00  0.00    +0.000 A 
ATOM     24  O   UNL     1      26.294  47.012  19.311  0.00  0.00    +0.000 OA
ATOM     25  C   UNL     1      26.205  46.311  17.066  0.00  0.00    +0.000 A 
ATOM     26  C   UNL     1      25.637  45.572  16.072  0.00  0.00    +0.000 A 
ATOM     27  O   UNL     1      25.695  45.943  14.724  0.00  0.00    +0.000 OA
ATOM     28  C   UNL     1      24.918  44.479  16.486  0.00  0.00    +0.000 A 
ENDBRANCH  20  21
ENDBRANCH  18  19
ENDBRANCH  14  15
ENDBRANCH  13  14
TORSDOF 8
ENDMDL
