MODEL 1
REMARK VINA RESULT:      -8.7      0.000      0.000
REMARK  Name = 
REMARK  8 active torsions:
REMARK  status: ('A' for Active; 'I' for Inactive)
REMARK    1  A    between atoms: C_2  and  O_3
REMARK    2  A    between atoms: C_2  and  C_31
REMARK    3  A    between atoms: O_3  and  C_4
REMARK    4  A    between atoms: C_5  and  O_6
REMARK    5  A    between atoms: O_6  and  C_7
REMARK    6  A    between atoms: C_10  and  C_11
REMARK    7  A    between atoms: C_12  and  C_13
REMARK    8  A    between atoms: C_24  and  C_25
REMARK                            x       y       z     vdW  Elec       q    Type
REMARK                         _______ _______ _______ _____ _____    ______ ____
ROOT
ATOM      4  C   UNL     1       5.841  58.639   7.895  0.00  0.00    +0.000 C 
ATOM      5  C   UNL     1       5.104  59.002   9.481  0.00  0.00    +0.000 C 
ATOM     23  O   UNL     1       4.640  57.589   9.987  0.00  0.00    +0.000 OA
ATOM     24  C   UNL     1       5.995  56.852   9.904  0.00  0.00    +0.000 C 
ATOM     27  C   UNL     1       5.586  55.994   8.407  0.00  0.00    +0.000 C 
ATOM     28  O   UNL     1       6.903  56.044   7.714  0.00  0.00    +0.000 OA
ATOM     29  C   UNL     1       4.837  57.292   7.560  0.00  0.00    +0.000 C 
ATOM     30  O   UNL     1       5.495  57.101   6.216  0.00  0.00    +0.000 OA
ENDROOT
BRANCH  24  25
ATOM     25  C   UNL     1       6.174  58.170   9.272  0.00  0.00    +0.000 C 
ATOM     26  O   UNL     1       7.067  58.299  10.473  0.00  0.00    +0.000 OA
ENDBRANCH  24  25
BRANCH   4   3
ATOM      3  O   UNL     1       7.157  57.993   8.309  0.00  0.00    +0.000 OA
BRANCH   3   2
ATOM      1  O   UNL     1       8.229  58.377   7.826  0.00  0.00    +0.000 OA
ATOM      2  C   UNL     1       8.323  58.454   7.987  0.00  0.00    +0.000 C 
BRANCH   2  31
ATOM     31  C   UNL     1       9.623  58.213   7.985  0.00  0.00    +0.000 A 
ATOM     32  C   UNL     1      10.208  59.169   7.220  0.00  0.00    +0.000 A 
ATOM     33  C   UNL     1      11.278  58.784   6.420  0.00  0.00    +0.000 A 
ATOM     34  O   UNL     1      11.841  59.727   5.611  0.00  0.00    +0.000 OA
ATOM     35  C   UNL     1      11.672  57.450   6.356  0.00  0.00    +0.000 A 
ATOM     36  O   UNL     1      12.828  57.090   5.721  0.00  0.00    +0.000 OA
ATOM     37  C   UNL     1      10.990  56.510   7.117  0.00  0.00    +0.000 A 
ATOM     38  O   UNL     1      11.105  55.177   6.834  0.00  0.00    +0.000 OA
ATOM     39  C   UNL     1      10.255  57.027   8.187  0.00  0.00    +0.000 A 
ENDBRANCH   2  31
ENDBRANCH   3   2
ENDBRANCH   4   3
BRANCH   5   6
ATOM      6  O   UNL     1       3.764  59.341   8.785  0.00  0.00    +0.000 OA
BRANCH   6   7
ATOM      7  C   UNL     1       2.939  60.235   9.288  0.00  0.00    +0.000 A 
ATOM      8  C   UNL     1       1.942  60.687   8.428  0.00  0.00    +0.000 A 
ATOM      9  C   UNL     1       1.195  61.788   8.831  0.00  0.00    +0.000 A 
ATOM     10  C   UNL     1       1.489  62.431  10.034  0.00  0.00    +0.000 A 
ATOM     21  C   UNL     1       2.856  62.393  10.268  0.00  0.00    +0.000 A 
ATOM     22  C   UNL     1       3.611  61.286   9.904  0.00  0.00    +0.000 A 
BRANCH  10  11
ATOM     11  C   UNL     1       0.471  62.631  11.062  0.00  0.00    +0.000 C 
ATOM     12  C   UNL     1       0.475  61.931  12.149  0.00  0.00    +0.000 C 
BRANCH  12  13
ATOM     13  C   UNL     1       1.030  60.567  12.169  0.00  0.00    +0.000 A 
ATOM     14  C   UNL     1       0.052  59.575  12.092  0.00  0.00    +0.000 A 
ATOM     15  C   UNL     1       0.415  58.266  12.341  0.00  0.00    +0.000 A 
ATOM     16  O   UNL     1      -0.021  57.213  11.539  0.00  0.00    +0.000 OA
ATOM     17  C   UNL     1       1.212  58.081  13.466  0.00  0.00    +0.000 A 
ATOM     18  C   UNL     1       1.922  59.171  13.967  0.00  0.00    +0.000 A 
ATOM     19  O   UNL     1       2.441  59.132  15.269  0.00  0.00    +0.000 OA
ATOM     20  C   UNL     1       1.914  60.348  13.225  0.00  0.00    +0.000 A 
ENDBRANCH  12  13
ENDBRANCH  10  11
ENDBRANCH   6   7
ENDBRANCH   5   6
TORSDOF 8
ENDMDL
MODEL 2
REMARK VINA RESULT:      -8.5      2.323      9.966
REMARK  Name = 
REMARK  8 active torsions:
REMARK  status: ('A' for Active; 'I' for Inactive)
REMARK    1  A    between atoms: C_2  and  O_3
REMARK    2  A    between atoms: C_2  and  C_31
REMARK    3  A    between atoms: O_3  and  C_4
REMARK    4  A    between atoms: C_5  and  O_6
REMARK    5  A    between atoms: O_6  and  C_7
REMARK    6  A    between atoms: C_10  and  C_11
REMARK    7  A    between atoms: C_12  and  C_13
REMARK    8  A    between atoms: C_24  and  C_25
REMARK                            x       y       z     vdW  Elec       q    Type
REMARK                         _______ _______ _______ _____ _____    ______ ____
ROOT
ATOM      4  C   UNL     1       2.515  60.534   9.369  0.00  0.00    +0.000 C 
ATOM      5  C   UNL     1       3.889  61.533   8.819  0.00  0.00    +0.000 C 
ATOM     23  O   UNL     1       3.214  62.545   7.823  0.00  0.00    +0.000 OA
ATOM     24  C   UNL     1       2.147  63.135   8.773  0.00  0.00    +0.000 C 
ATOM     27  C   UNL     1       0.815  62.194   8.075  0.00  0.00    +0.000 C 
ATOM     28  O   UNL     1       0.048  61.878   9.311  0.00  0.00    +0.000 OA
ATOM     29  C   UNL     1       1.621  60.681   7.916  0.00  0.00    +0.000 C 
ATOM     30  O   UNL     1       0.536  59.785   8.460  0.00  0.00    +0.000 OA
ENDROOT
BRANCH  24  25
ATOM     25  C   UNL     1       2.776  62.000   9.471  0.00  0.00    +0.000 C 
ATOM     26  O   UNL     1       3.228  63.152  10.322  0.00  0.00    +0.000 OA
ENDBRANCH  24  25
BRANCH   4   3
ATOM      3  O   UNL     1       1.798  61.491  10.314  0.00  0.00    +0.000 OA
BRANCH   3   2
ATOM      1  O   UNL     1       1.877  61.206  11.514  0.00  0.00    +0.000 OA
ATOM      2  C   UNL     1       1.756  61.344  11.599  0.00  0.00    +0.000 C 
BRANCH   2  31
ATOM     31  C   UNL     1       1.060  60.860  12.614  0.00  0.00    +0.000 A 
ATOM     32  C   UNL     1       1.950  60.399  13.529  0.00  0.00    +0.000 A 
ATOM     33  C   UNL     1       1.623  59.234  14.212  0.00  0.00    +0.000 A 
ATOM     34  O   UNL     1       2.534  58.737  15.097  0.00  0.00    +0.000 OA
ATOM     35  C   UNL     1       0.460  58.534  13.903  0.00  0.00    +0.000 A 
ATOM     36  O   UNL     1       0.038  57.496  14.686  0.00  0.00    +0.000 OA
ATOM     37  C   UNL     1      -0.378  59.025  12.910  0.00  0.00    +0.000 A 
ATOM     38  O   UNL     1      -1.324  58.218  12.342  0.00  0.00    +0.000 OA
ATOM     39  C   UNL     1      -0.211  60.379  12.604  0.00  0.00    +0.000 A 
ENDBRANCH   2  31
ENDBRANCH   3   2
ENDBRANCH   4   3
BRANCH   5   6
ATOM      6  O   UNL     1       4.224  60.482   7.734  0.00  0.00    +0.000 OA
BRANCH   6   7
ATOM      7  C   UNL     1       5.394  59.881   7.703  0.00  0.00    +0.000 A 
ATOM      8  C   UNL     1       6.504  60.718   7.776  0.00  0.00    +0.000 A 
ATOM      9  C   UNL     1       7.751  60.157   7.519  0.00  0.00    +0.000 A 
ATOM     10  C   UNL     1       7.853  58.814   7.153  0.00  0.00    +0.000 A 
ATOM     21  C   UNL     1       6.753  58.449   6.390  0.00  0.00    +0.000 A 
ATOM     22  C   UNL     1       5.495  58.972   6.655  0.00  0.00    +0.000 A 
BRANCH  10  11
ATOM     11  C   UNL     1       8.705  57.884   7.889  0.00  0.00    +0.000 C 
ATOM     12  C   UNL     1       9.993  57.997   7.862  0.00  0.00    +0.000 C 
BRANCH  12  13
ATOM     13  C   UNL     1      10.678  58.582   6.696  0.00  0.00    +0.000 A 
ATOM     14  C   UNL     1      11.137  57.624   5.791  0.00  0.00    +0.000 A 
ATOM     15  C   UNL     1      11.998  58.020   4.787  0.00  0.00    +0.000 A 
ATOM     16  O   UNL     1      11.843  57.590   3.470  0.00  0.00    +0.000 OA
ATOM     17  C   UNL     1      13.039  58.844   5.198  0.00  0.00    +0.000 A 
ATOM     18  C   UNL     1      12.906  59.540   6.398  0.00  0.00    +0.000 A 
ATOM     19  O   UNL     1      14.038  60.087   7.021  0.00  0.00    +0.000 OA
ATOM     20  C   UNL     1      11.676  59.491   7.044  0.00  0.00    +0.000 A 
ENDBRANCH  12  13
ENDBRANCH  10  11
ENDBRANCH   6   7
ENDBRANCH   5   6
TORSDOF 8
ENDMDL
MODEL 3
REMARK VINA RESULT:      -8.4      2.764      8.742
REMARK  Name = 
REMARK  8 active torsions:
REMARK  status: ('A' for Active; 'I' for Inactive)
REMARK    1  A    between atoms: C_2  and  O_3
REMARK    2  A    between atoms: C_2  and  C_31
REMARK    3  A    between atoms: O_3  and  C_4
REMARK    4  A    between atoms: C_5  and  O_6
REMARK    5  A    between atoms: O_6  and  C_7
REMARK    6  A    between atoms: C_10  and  C_11
REMARK    7  A    between atoms: C_12  and  C_13
REMARK    8  A    between atoms: C_24  and  C_25
REMARK                            x       y       z     vdW  Elec       q    Type
REMARK                         _______ _______ _______ _____ _____    ______ ____
ROOT
ATOM      4  C   UNL     1       2.498  60.511   9.326  0.00  0.00    +0.000 C 
ATOM      5  C   UNL     1       3.914  61.439   8.759  0.00  0.00    +0.000 C 
ATOM     23  O   UNL     1       3.273  62.527   7.824  0.00  0.00    +0.000 OA
ATOM     24  C   UNL     1       2.281  63.150   8.832  0.00  0.00    +0.000 C 
ATOM     27  C   UNL     1       0.866  62.324   8.153  0.00  0.00    +0.000 C 
ATOM     28  O   UNL     1       0.124  62.013   9.406  0.00  0.00    +0.000 OA
ATOM     29  C   UNL     1       1.564  60.768   7.913  0.00  0.00    +0.000 C 
ATOM     30  O   UNL     1       0.443  59.925   8.467  0.00  0.00    +0.000 OA
ENDROOT
BRANCH  24  25
ATOM     25  C   UNL     1       2.858  61.952   9.467  0.00  0.00    +0.000 C 
ATOM     26  O   UNL     1       3.317  63.030  10.407  0.00  0.00    +0.000 OA
ENDBRANCH  24  25
BRANCH   4   3
ATOM      3  O   UNL     1       1.879  61.477  10.329  0.00  0.00    +0.000 OA
BRANCH   3   2
ATOM      1  O   UNL     1       1.944  61.123  11.511  0.00  0.00    +0.000 OA
ATOM      2  C   UNL     1       1.841  61.269  11.606  0.00  0.00    +0.000 C 
BRANCH   2  31
ATOM     31  C   UNL     1       1.109  60.820  12.611  0.00  0.00    +0.000 A 
ATOM     32  C   UNL     1       1.966  60.361  13.558  0.00  0.00    +0.000 A 
ATOM     33  C   UNL     1       1.598  59.216  14.255  0.00  0.00    +0.000 A 
ATOM     34  O   UNL     1       2.475  58.720  15.175  0.00  0.00    +0.000 OA
ATOM     35  C   UNL     1       0.430  58.532  13.929  0.00  0.00    +0.000 A 
ATOM     36  O   UNL     1      -0.033  57.519  14.721  0.00  0.00    +0.000 OA
ATOM     37  C   UNL     1      -0.372  59.019  12.905  0.00  0.00    +0.000 A 
ATOM     38  O   UNL     1      -1.318  58.219  12.328  0.00  0.00    +0.000 OA
ATOM     39  C   UNL     1      -0.170  60.363  12.576  0.00  0.00    +0.000 A 
ENDBRANCH   2  31
ENDBRANCH   3   2
ENDBRANCH   4   3
BRANCH   5   6
ATOM      6  O   UNL     1       4.141  60.408   7.626  0.00  0.00    +0.000 OA
BRANCH   6   7
ATOM      7  C   UNL     1       5.352  60.026   7.283  0.00  0.00    +0.000 A 
ATOM      8  C   UNL     1       6.394  60.618   7.992  0.00  0.00    +0.000 A 
ATOM      9  C   UNL     1       7.688  60.422   7.518  0.00  0.00    +0.000 A 
ATOM     10  C   UNL     1       7.900  59.700   6.343  0.00  0.00    +0.000 A 
ATOM     21  C   UNL     1       6.859  59.924   5.455  0.00  0.00    +0.000 A 
ATOM     22  C   UNL     1       5.556  60.086   5.908  0.00  0.00    +0.000 A 
BRANCH  10  11
ATOM     11  C   UNL     1       8.793  58.544   6.309  0.00  0.00    +0.000 C 
ATOM     12  C   UNL     1       8.361  57.360   6.597  0.00  0.00    +0.000 C 
BRANCH  12  13
ATOM     13  C   UNL     1       7.234  57.170   7.527  0.00  0.00    +0.000 A 
ATOM     14  C   UNL     1       7.635  56.744   8.794  0.00  0.00    +0.000 A 
ATOM     15  C   UNL     1       6.672  56.302   9.679  0.00  0.00    +0.000 A 
ATOM     16  O   UNL     1       6.668  56.686  11.019  0.00  0.00    +0.000 OA
ATOM     17  C   UNL     1       5.738  55.424   9.140  0.00  0.00    +0.000 A 
ATOM     18  C   UNL     1       5.561  55.404   7.758  0.00  0.00    +0.000 A 
ATOM     19  O   UNL     1       4.914  54.318   7.149  0.00  0.00    +0.000 OA
ATOM     20  C   UNL     1       6.219  56.370   7.005  0.00  0.00    +0.000 A 
ENDBRANCH  12  13
ENDBRANCH  10  11
ENDBRANCH   6   7
ENDBRANCH   5   6
TORSDOF 8
ENDMDL
MODEL 4
REMARK VINA RESULT:      -8.3      1.427      2.101
REMARK  Name = 
REMARK  8 active torsions:
REMARK  status: ('A' for Active; 'I' for Inactive)
REMARK    1  A    between atoms: C_2  and  O_3
REMARK    2  A    between atoms: C_2  and  C_31
REMARK    3  A    between atoms: O_3  and  C_4
REMARK    4  A    between atoms: C_5  and  O_6
REMARK    5  A    between atoms: O_6  and  C_7
REMARK    6  A    between atoms: C_10  and  C_11
REMARK    7  A    between atoms: C_12  and  C_13
REMARK    8  A    between atoms: C_24  and  C_25
REMARK                            x       y       z     vdW  Elec       q    Type
REMARK                         _______ _______ _______ _____ _____    ______ ____
ROOT
ATOM      4  C   UNL     1       4.953  57.321   8.720  0.00  0.00    +0.000 C 
ATOM      5  C   UNL     1       4.058  57.901  10.152  0.00  0.00    +0.000 C 
ATOM     23  O   UNL     1       3.170  56.664  10.539  0.00  0.00    +0.000 OA
ATOM     24  C   UNL     1       4.289  55.609  10.690  0.00  0.00    +0.000 C 
ATOM     27  C   UNL     1       3.955  54.839   9.127  0.00  0.00    +0.000 C 
ATOM     28  O   UNL     1       5.345  54.539   8.686  0.00  0.00    +0.000 OA
ATOM     29  C   UNL     1       3.721  56.259   8.182  0.00  0.00    +0.000 C 
ATOM     30  O   UNL     1       4.542  55.872   6.978  0.00  0.00    +0.000 OA
ENDROOT
BRANCH  24  25
ATOM     25  C   UNL     1       4.904  56.822  10.126  0.00  0.00    +0.000 C 
ATOM     26  O   UNL     1       5.644  56.699  11.427  0.00  0.00    +0.000 OA
ENDBRANCH  24  25
BRANCH   4   3
ATOM      3  O   UNL     1       5.969  56.378   9.354  0.00  0.00    +0.000 OA
BRANCH   3   2
ATOM      1  O   UNL     1       7.175  56.625   9.244  0.00  0.00    +0.000 OA
ATOM      2  C   UNL     1       7.247  56.455   9.163  0.00  0.00    +0.000 C 
BRANCH   2  31
ATOM     31  C   UNL     1       8.199  56.672   8.272  0.00  0.00    +0.000 A 
ATOM     32  C   UNL     1       9.286  55.959   8.664  0.00  0.00    +0.000 A 
ATOM     33  C   UNL     1      10.535  56.538   8.474  0.00  0.00    +0.000 A 
ATOM     34  O   UNL     1      11.629  55.849   8.910  0.00  0.00    +0.000 OA
ATOM     35  C   UNL     1      10.649  57.831   7.974  0.00  0.00    +0.000 A 
ATOM     36  O   UNL     1      11.866  58.339   7.614  0.00  0.00    +0.000 OA
ATOM     37  C   UNL     1       9.494  58.532   7.651  0.00  0.00    +0.000 A 
ATOM     38  O   UNL     1       9.531  59.889   7.491  0.00  0.00    +0.000 OA
ATOM     39  C   UNL     1       8.354  57.747   7.456  0.00  0.00    +0.000 A 
ENDBRANCH   2  31
ENDBRANCH   3   2
ENDBRANCH   4   3
BRANCH   5   6
ATOM      6  O   UNL     1       2.993  58.545   9.230  0.00  0.00    +0.000 OA
BRANCH   6   7
ATOM      7  C   UNL     1       2.252  59.551   9.642  0.00  0.00    +0.000 A 
ATOM      8  C   UNL     1       1.097  59.790   8.902  0.00  0.00    +0.000 A 
ATOM      9  C   UNL     1       0.405  60.971   9.154  0.00  0.00    +0.000 A 
ATOM     10  C   UNL     1       0.900  61.888  10.080  0.00  0.00    +0.000 A 
ATOM     21  C   UNL     1       2.287  61.886  10.053  0.00  0.00    +0.000 A 
ATOM     22  C   UNL     1       2.995  60.710   9.838  0.00  0.00    +0.000 A 
BRANCH  10  11
ATOM     11  C   UNL     1       0.088  62.357  11.200  0.00  0.00    +0.000 C 
ATOM     12  C   UNL     1       0.256  61.880  12.390  0.00  0.00    +0.000 C 
BRANCH  12  13
ATOM     13  C   UNL     1       0.752  60.508  12.593  0.00  0.00    +0.000 A 
ATOM     14  C   UNL     1      -0.247  59.616  12.989  0.00  0.00    +0.000 A 
ATOM     15  C   UNL     1       0.123  58.365  13.441  0.00  0.00    +0.000 A 
ATOM     16  O   UNL     1      -0.539  57.208  13.035  0.00  0.00    +0.000 OA
ATOM     17  C   UNL     1       1.175  58.357  14.351  0.00  0.00    +0.000 A 
ATOM     18  C   UNL     1       2.025  59.460  14.397  0.00  0.00    +0.000 A 
ATOM     19  O   UNL     1       2.858  59.657  15.509  0.00  0.00    +0.000 OA
ATOM     20  C   UNL     1       1.868  60.444  13.426  0.00  0.00    +0.000 A 
ENDBRANCH  12  13
ENDBRANCH  10  11
ENDBRANCH   6   7
ENDBRANCH   5   6
TORSDOF 8
ENDMDL
MODEL 5
REMARK VINA RESULT:      -8.2     29.007     31.473
REMARK  Name = 
REMARK  8 active torsions:
REMARK  status: ('A' for Active; 'I' for Inactive)
REMARK    1  A    between atoms: C_2  and  O_3
REMARK    2  A    between atoms: C_2  and  C_31
REMARK    3  A    between atoms: O_3  and  C_4
REMARK    4  A    between atoms: C_5  and  O_6
REMARK    5  A    between atoms: O_6  and  C_7
REMARK    6  A    between atoms: C_10  and  C_11
REMARK    7  A    between atoms: C_12  and  C_13
REMARK    8  A    between atoms: C_24  and  C_25
REMARK                            x       y       z     vdW  Elec       q    Type
REMARK                         _______ _______ _______ _____ _____    ______ ____
ROOT
ATOM      4  C   UNL     1       5.050  82.538  28.859  0.00  0.00    +0.000 C 
ATOM      5  C   UNL     1       5.069  83.256  30.494  0.00  0.00    +0.000 C 
ATOM     23  O   UNL     1       6.193  82.436  31.226  0.00  0.00    +0.000 OA
ATOM     24  C   UNL     1       7.355  82.698  30.242  0.00  0.00    +0.000 C 
ATOM     27  C   UNL     1       7.252  81.097  29.487  0.00  0.00    +0.000 C 
ATOM     28  O   UNL     1       7.523  81.463  28.069  0.00  0.00    +0.000 OA
ATOM     29  C   UNL     1       5.539  80.977  29.365  0.00  0.00    +0.000 C 
ATOM     30  O   UNL     1       5.444  80.459  27.952  0.00  0.00    +0.000 OA
ENDROOT
BRANCH  24  25
ATOM     25  C   UNL     1       6.129  83.230  29.623  0.00  0.00    +0.000 C 
ATOM     26  O   UNL     1       6.926  84.488  29.816  0.00  0.00    +0.000 OA
ENDBRANCH  24  25
BRANCH   4   3
ATOM      3  O   UNL     1       6.322  83.119  28.253  0.00  0.00    +0.000 OA
BRANCH   3   2
ATOM      1  O   UNL     1       6.261  83.700  27.164  0.00  0.00    +0.000 OA
ATOM      2  C   UNL     1       6.344  83.880  27.206  0.00  0.00    +0.000 C 
BRANCH   2  31
ATOM     31  C   UNL     1       7.091  84.347  26.220  0.00  0.00    +0.000 A 
ATOM     32  C   UNL     1       6.311  84.387  25.110  0.00  0.00    +0.000 A 
ATOM     33  C   UNL     1       6.904  84.056  23.897  0.00  0.00    +0.000 A 
ATOM     34  O   UNL     1       6.116  84.047  22.784  0.00  0.00    +0.000 OA
ATOM     35  C   UNL     1       8.228  83.627  23.849  0.00  0.00    +0.000 A 
ATOM     36  O   UNL     1       8.872  83.476  22.653  0.00  0.00    +0.000 OA
ATOM     37  C   UNL     1       8.953  83.547  25.031  0.00  0.00    +0.000 A 
ATOM     38  O   UNL     1      10.109  82.820  25.084  0.00  0.00    +0.000 OA
ATOM     39  C   UNL     1       8.443  84.294  26.096  0.00  0.00    +0.000 A 
ENDBRANCH   2  31
ENDBRANCH   3   2
ENDBRANCH   4   3
BRANCH   5   6
ATOM      6  O   UNL     1       3.918  82.315  30.925  0.00  0.00    +0.000 OA
BRANCH   6   7
ATOM      7  C   UNL     1       3.873  81.800  32.135  0.00  0.00    +0.000 A 
ATOM      8  C   UNL     1       3.208  80.582  32.246  0.00  0.00    +0.000 A 
ATOM      9  C   UNL     1       2.936  80.112  33.527  0.00  0.00    +0.000 A 
ATOM     10  C   UNL     1       3.280  80.878  34.641  0.00  0.00    +0.000 A 
ATOM     21  C   UNL     1       3.139  82.227  34.349  0.00  0.00    +0.000 A 
ATOM     22  C   UNL     1       3.440  82.719  33.085  0.00  0.00    +0.000 A 
BRANCH  10  11
ATOM     11  C   UNL     1       4.116  80.339  35.711  0.00  0.00    +0.000 C 
ATOM     12  C   UNL     1       5.405  80.431  35.660  0.00  0.00    +0.000 C 
BRANCH  12  13
ATOM     13  C   UNL     1       6.111  80.479  34.369  0.00  0.00    +0.000 A 
ATOM     14  C   UNL     1       6.477  79.217  33.896  0.00  0.00    +0.000 A 
ATOM     15  C   UNL     1       7.347  79.138  32.827  0.00  0.00    +0.000 A 
ATOM     16  O   UNL     1       7.135  78.257  31.767  0.00  0.00    +0.000 OA
ATOM     17  C   UNL     1       8.457  79.971  32.909  0.00  0.00    +0.000 A 
ATOM     18  C   UNL     1       8.400  81.076  33.757  0.00  0.00    +0.000 A 
ATOM     19  O   UNL     1       9.582  81.726  34.142  0.00  0.00    +0.000 OA
ATOM     20  C   UNL     1       7.182  81.371  34.360  0.00  0.00    +0.000 A 
ENDBRANCH  12  13
ENDBRANCH  10  11
ENDBRANCH   6   7
ENDBRANCH   5   6
TORSDOF 8
ENDMDL
MODEL 6
REMARK VINA RESULT:      -8.1      6.288     12.319
REMARK  Name = 
REMARK  8 active torsions:
REMARK  status: ('A' for Active; 'I' for Inactive)
REMARK    1  A    between atoms: C_2  and  O_3
REMARK    2  A    between atoms: C_2  and  C_31
REMARK    3  A    between atoms: O_3  and  C_4
REMARK    4  A    between atoms: C_5  and  O_6
REMARK    5  A    between atoms: O_6  and  C_7
REMARK    6  A    between atoms: C_10  and  C_11
REMARK    7  A    between atoms: C_12  and  C_13
REMARK    8  A    between atoms: C_24  and  C_25
REMARK                            x       y       z     vdW  Elec       q    Type
REMARK                         _______ _______ _______ _____ _____    ______ ____
ROOT
ATOM      4  C   UNL     1      10.908  58.559   4.670  0.00  0.00    +0.000 C 
ATOM      5  C   UNL     1      10.680  56.829   4.291  0.00  0.00    +0.000 C 
ATOM     23  O   UNL     1      11.827  56.133   5.110  0.00  0.00    +0.000 OA
ATOM     24  C   UNL     1      11.480  56.680   6.513  0.00  0.00    +0.000 C 
ATOM     27  C   UNL     1      12.778  57.889   6.508  0.00  0.00    +0.000 C 
ATOM     28  O   UNL     1      12.080  59.018   7.182  0.00  0.00    +0.000 OA
ATOM     29  C   UNL     1      12.604  58.451   4.889  0.00  0.00    +0.000 C 
ATOM     30  O   UNL     1      12.693  59.933   5.150  0.00  0.00    +0.000 OA
ENDROOT
BRANCH  24  25
ATOM     25  C   UNL     1      10.622  57.384   5.544  0.00  0.00    +0.000 C 
ATOM     26  O   UNL     1       9.652  56.400   6.131  0.00  0.00    +0.000 OA
ENDBRANCH  24  25
BRANCH   4   3
ATOM      3  O   UNL     1      10.380  58.634   6.097  0.00  0.00    +0.000 OA
BRANCH   3   2
ATOM      1  O   UNL     1       9.515  59.454   6.427  0.00  0.00    +0.000 OA
ATOM      2  C   UNL     1       9.353  59.336   6.454  0.00  0.00    +0.000 C 
BRANCH   2  31
ATOM     31  C   UNL     1       8.602  59.721   7.471  0.00  0.00    +0.000 A 
ATOM     32  C   UNL     1       8.557  58.687   8.350  0.00  0.00    +0.000 A 
ATOM     33  C   UNL     1       7.354  58.457   9.009  0.00  0.00    +0.000 A 
ATOM     34  O   UNL     1       7.287  57.391   9.857  0.00  0.00    +0.000 OA
ATOM     35  C   UNL     1       6.226  59.215   8.709  0.00  0.00    +0.000 A 
ATOM     36  O   UNL     1       5.096  59.121   9.474  0.00  0.00    +0.000 OA
ATOM     37  C   UNL     1       6.322  60.217   7.753  0.00  0.00    +0.000 A 
ATOM     38  O   UNL     1       5.194  60.742   7.186  0.00  0.00    +0.000 OA
ATOM     39  C   UNL     1       7.619  60.659   7.480  0.00  0.00    +0.000 A 
ENDBRANCH   2  31
ENDBRANCH   3   2
ENDBRANCH   4   3
BRANCH   5   6
ATOM      6  O   UNL     1      11.520  56.996   3.002  0.00  0.00    +0.000 OA
BRANCH   6   7
ATOM      7  C   UNL     1      11.144  56.450   1.865  0.00  0.00    +0.000 A 
ATOM      8  C   UNL     1      12.131  56.349   0.889  0.00  0.00    +0.000 A 
ATOM      9  C   UNL     1      11.732  55.993  -0.395  0.00  0.00    +0.000 A 
ATOM     10  C   UNL     1      10.380  55.802  -0.680  0.00  0.00    +0.000 A 
ATOM     21  C   UNL     1       9.611  56.679   0.071  0.00  0.00    +0.000 A 
ATOM     22  C   UNL     1       9.975  57.017   1.368  0.00  0.00    +0.000 A 
BRANCH  10  11
ATOM     11  C   UNL     1       9.892  54.559  -1.271  0.00  0.00    +0.000 C 
ATOM     12  C   UNL     1       9.833  54.409  -2.554  0.00  0.00    +0.000 C 
BRANCH  12  13
ATOM     13  C   UNL     1       9.638  55.567  -3.444  0.00  0.00    +0.000 A 
ATOM     14  C   UNL     1       8.293  55.879  -3.651  0.00  0.00    +0.000 A 
ATOM     15  C   UNL     1       7.968  56.781  -4.644  0.00  0.00    +0.000 A 
ATOM     16  O   UNL     1       7.032  57.794  -4.444  0.00  0.00    +0.000 OA
ATOM     17  C   UNL     1       8.616  56.578  -5.858  0.00  0.00    +0.000 A 
ATOM     18  C   UNL     1       9.794  55.834  -5.868  0.00  0.00    +0.000 A 
ATOM     19  O   UNL     1      10.281  55.308  -7.074  0.00  0.00    +0.000 OA
ATOM     20  C   UNL     1      10.340  55.464  -4.643  0.00  0.00    +0.000 A 
ENDBRANCH  12  13
ENDBRANCH  10  11
ENDBRANCH   6   7
ENDBRANCH   5   6
TORSDOF 8
ENDMDL
MODEL 7
REMARK VINA RESULT:      -8.0      1.859      2.506
REMARK  Name = 
REMARK  8 active torsions:
REMARK  status: ('A' for Active; 'I' for Inactive)
REMARK    1  A    between atoms: C_2  and  O_3
REMARK    2  A    between atoms: C_2  and  C_31
REMARK    3  A    between atoms: O_3  and  C_4
REMARK    4  A    between atoms: C_5  and  O_6
REMARK    5  A    between atoms: O_6  and  C_7
REMARK    6  A    between atoms: C_10  and  C_11
REMARK    7  A    between atoms: C_12  and  C_13
REMARK    8  A    between atoms: C_24  and  C_25
REMARK                            x       y       z     vdW  Elec       q    Type
REMARK                         _______ _______ _______ _____ _____    ______ ____
ROOT
ATOM      4  C   UNL     1       7.377  58.467   6.916  0.00  0.00    +0.000 C 
ATOM      5  C   UNL     1       6.868  58.729   8.606  0.00  0.00    +0.000 C 
ATOM     23  O   UNL     1       6.449  57.289   9.077  0.00  0.00    +0.000 OA
ATOM     24  C   UNL     1       7.766  56.546   8.762  0.00  0.00    +0.000 C 
ATOM     27  C   UNL     1       7.143  55.796   7.280  0.00  0.00    +0.000 C 
ATOM     28  O   UNL     1       8.356  55.880   6.421  0.00  0.00    +0.000 OA
ATOM     29  C   UNL     1       6.312  57.156   6.631  0.00  0.00    +0.000 C 
ATOM     30  O   UNL     1       6.780  57.050   5.201  0.00  0.00    +0.000 OA
ENDROOT
BRANCH  24  25
ATOM     25  C   UNL     1       7.884  57.902   8.201  0.00  0.00    +0.000 C 
ATOM     26  O   UNL     1       8.953  57.930   9.255  0.00  0.00    +0.000 OA
ENDBRANCH  24  25
BRANCH   4   3
ATOM      3  O   UNL     1       8.725  57.781   7.103  0.00  0.00    +0.000 OA
BRANCH   3   2
ATOM      1  O   UNL     1       9.709  58.340   6.606  0.00  0.00    +0.000 OA
ATOM      2  C   UNL     1       9.856  58.295   6.738  0.00  0.00    +0.000 C 
BRANCH   2  31
ATOM     31  C   UNL     1      11.019  58.055   6.157  0.00  0.00    +0.000 A 
ATOM     32  C   UNL     1      11.968  58.710   6.872  0.00  0.00    +0.000 A 
ATOM     33  C   UNL     1      13.013  59.296   6.166  0.00  0.00    +0.000 A 
ATOM     34  O   UNL     1      13.944  59.998   6.873  0.00  0.00    +0.000 OA
ATOM     35  C   UNL     1      13.030  59.270   4.775  0.00  0.00    +0.000 A 
ATOM     36  O   UNL     1      14.134  59.678   4.080  0.00  0.00    +0.000 OA
ATOM     37  C   UNL     1      11.994  58.637   4.100  0.00  0.00    +0.000 A 
ATOM     38  O   UNL     1      11.786  58.878   2.771  0.00  0.00    +0.000 OA
ATOM     39  C   UNL     1      11.255  57.726   4.860  0.00  0.00    +0.000 A 
ENDBRANCH   2  31
ENDBRANCH   3   2
ENDBRANCH   4   3
BRANCH   5   6
ATOM      6  O   UNL     1       5.452  59.128   8.123  0.00  0.00    +0.000 OA
BRANCH   6   7
ATOM      7  C   UNL     1       4.590  59.704   8.933  0.00  0.00    +0.000 A 
ATOM      8  C   UNL     1       3.644  58.858   9.507  0.00  0.00    +0.000 A 
ATOM      9  C   UNL     1       2.581  59.447  10.183  0.00  0.00    +0.000 A 
ATOM     10  C   UNL     1       2.461  60.837  10.225  0.00  0.00    +0.000 A 
ATOM     21  C   UNL     1       2.923  61.386   9.037  0.00  0.00    +0.000 A 
ATOM     22  C   UNL     1       4.006  60.832   8.368  0.00  0.00    +0.000 A 
BRANCH  10  11
ATOM     11  C   UNL     1       2.352  61.556  11.491  0.00  0.00    +0.000 C 
ATOM     12  C   UNL     1       1.683  61.064  12.482  0.00  0.00    +0.000 C 
BRANCH  12  13
ATOM     13  C   UNL     1       0.543  60.161  12.251  0.00  0.00    +0.000 A 
ATOM     14  C   UNL     1      -0.689  60.818  12.266  0.00  0.00    +0.000 A 
ATOM     15  C   UNL     1      -1.843  60.060  12.302  0.00  0.00    +0.000 A 
ATOM     16  O   UNL     1      -2.943  60.351  11.496  0.00  0.00    +0.000 OA
ATOM     17  C   UNL     1      -1.833  59.018  13.222  0.00  0.00    +0.000 A 
ATOM     18  C   UNL     1      -0.605  58.548  13.684  0.00  0.00    +0.000 A 
ATOM     19  O   UNL     1      -0.545  57.767  14.848  0.00  0.00    +0.000 OA
ATOM     20  C   UNL     1       0.548  59.044  13.085  0.00  0.00    +0.000 A 
ENDBRANCH  12  13
ENDBRANCH  10  11
ENDBRANCH   6   7
ENDBRANCH   5   6
TORSDOF 8
ENDMDL
MODEL 8
REMARK VINA RESULT:      -8.0     24.226     27.565
REMARK  Name = 
REMARK  8 active torsions:
REMARK  status: ('A' for Active; 'I' for Inactive)
REMARK    1  A    between atoms: C_2  and  O_3
REMARK    2  A    between atoms: C_2  and  C_31
REMARK    3  A    between atoms: O_3  and  C_4
REMARK    4  A    between atoms: C_5  and  O_6
REMARK    5  A    between atoms: O_6  and  C_7
REMARK    6  A    between atoms: C_10  and  C_11
REMARK    7  A    between atoms: C_12  and  C_13
REMARK    8  A    between atoms: C_24  and  C_25
REMARK                            x       y       z     vdW  Elec       q    Type
REMARK                         _______ _______ _______ _____ _____    ______ ____
ROOT
ATOM      4  C   UNL     1      15.675  63.775 -13.878  0.00  0.00    +0.000 C 
ATOM      5  C   UNL     1      14.872  63.378 -15.422  0.00  0.00    +0.000 C 
ATOM     23  O   UNL     1      13.366  63.209 -15.004  0.00  0.00    +0.000 OA
ATOM     24  C   UNL     1      13.149  64.587 -14.341  0.00  0.00    +0.000 C 
ATOM     27  C   UNL     1      13.252  63.955 -12.687  0.00  0.00    +0.000 C 
ATOM     28  O   UNL     1      13.995  65.067 -12.032  0.00  0.00    +0.000 OA
ATOM     29  C   UNL     1      14.586  62.887 -12.899  0.00  0.00    +0.000 C 
ATOM     30  O   UNL     1      15.365  63.243 -11.659  0.00  0.00    +0.000 OA
ENDROOT
BRANCH  24  25
ATOM     25  C   UNL     1      14.587  64.463 -14.633  0.00  0.00    +0.000 C 
ATOM     26  O   UNL     1      14.208  65.612 -15.523  0.00  0.00    +0.000 OA
ENDBRANCH  24  25
BRANCH   4   3
ATOM      3  O   UNL     1      15.233  65.218 -13.664  0.00  0.00    +0.000 OA
BRANCH   3   2
ATOM      1  O   UNL     1      16.150  66.039 -13.541  0.00  0.00    +0.000 OA
ATOM      2  C   UNL     1      16.050  66.215 -13.538  0.00  0.00    +0.000 C 
BRANCH   2  31
ATOM     31  C   UNL     1      16.571  67.091 -12.697  0.00  0.00    +0.000 A 
ATOM     32  C   UNL     1      17.857  66.718 -12.473  0.00  0.00    +0.000 A 
ATOM     33  C   UNL     1      18.357  66.878 -11.186  0.00  0.00    +0.000 A 
ATOM     34  O   UNL     1      19.632  66.460 -10.941  0.00  0.00    +0.000 OA
ATOM     35  C   UNL     1      17.535  67.331 -10.158  0.00  0.00    +0.000 A 
ATOM     36  O   UNL     1      18.057  67.666  -8.940  0.00  0.00    +0.000 OA
ATOM     37  C   UNL     1      16.210  67.636 -10.440  0.00  0.00    +0.000 A 
ATOM     38  O   UNL     1      15.297  67.747  -9.429  0.00  0.00    +0.000 OA
ATOM     39  C   UNL     1      15.924  67.866 -11.788  0.00  0.00    +0.000 A 
ENDBRANCH   2  31
ENDBRANCH   3   2
ENDBRANCH   4   3
BRANCH   5   6
ATOM      6  O   UNL     1      15.231  61.884 -15.229  0.00  0.00    +0.000 OA
BRANCH   6   7
ATOM      7  C   UNL     1      15.744  61.173 -16.210  0.00  0.00    +0.000 A 
ATOM      8  C   UNL     1      16.955  60.547 -15.931  0.00  0.00    +0.000 A 
ATOM      9  C   UNL     1      17.647  59.978 -16.995  0.00  0.00    +0.000 A 
ATOM     10  C   UNL     1      17.148  60.091 -18.294  0.00  0.00    +0.000 A 
ATOM     21  C   UNL     1      16.510  61.313 -18.450  0.00  0.00    +0.000 A 
ATOM     22  C   UNL     1      15.787  61.878 -17.409  0.00  0.00    +0.000 A 
BRANCH  10  11
ATOM     11  C   UNL     1      16.915  58.915 -19.127  0.00  0.00    +0.000 C 
ATOM     12  C   UNL     1      15.715  58.503 -19.380  0.00  0.00    +0.000 C 
BRANCH  12  13
ATOM     13  C   UNL     1      14.618  58.741 -18.427  0.00  0.00    +0.000 A 
ATOM     14  C   UNL     1      14.526  57.759 -17.439  0.00  0.00    +0.000 A 
ATOM     15  C   UNL     1      13.405  57.732 -16.634  0.00  0.00    +0.000 A 
ATOM     16  O   UNL     1      13.491  57.550 -15.254  0.00  0.00    +0.000 OA
ATOM     17  C   UNL     1      12.195  57.862 -17.307  0.00  0.00    +0.000 A 
ATOM     18  C   UNL     1      12.198  58.429 -18.581  0.00  0.00    +0.000 A 
ATOM     19  O   UNL     1      11.092  58.259 -19.427  0.00  0.00    +0.000 OA
ATOM     20  C   UNL     1      13.391  58.972 -19.047  0.00  0.00    +0.000 A 
ENDBRANCH  12  13
ENDBRANCH  10  11
ENDBRANCH   6   7
ENDBRANCH   5   6
TORSDOF 8
ENDMDL
MODEL 9
REMARK VINA RESULT:      -7.9     21.918     27.242
REMARK  Name = 
REMARK  8 active torsions:
REMARK  status: ('A' for Active; 'I' for Inactive)
REMARK    1  A    between atoms: C_2  and  O_3
REMARK    2  A    between atoms: C_2  and  C_31
REMARK    3  A    between atoms: O_3  and  C_4
REMARK    4  A    between atoms: C_5  and  O_6
REMARK    5  A    between atoms: O_6  and  C_7
REMARK    6  A    between atoms: C_10  and  C_11
REMARK    7  A    between atoms: C_12  and  C_13
REMARK    8  A    between atoms: C_24  and  C_25
REMARK                            x       y       z     vdW  Elec       q    Type
REMARK                         _______ _______ _______ _____ _____    ______ ____
ROOT
ATOM      4  C   UNL     1      14.004  61.674 -14.899  0.00  0.00    +0.000 C 
ATOM      5  C   UNL     1      15.768  61.625 -14.631  0.00  0.00    +0.000 C 
ATOM     23  O   UNL     1      16.099  63.093 -14.178  0.00  0.00    +0.000 OA
ATOM     24  C   UNL     1      15.128  63.195 -12.981  0.00  0.00    +0.000 C 
ATOM     27  C   UNL     1      13.937  64.172 -13.859  0.00  0.00    +0.000 C 
ATOM     28  O   UNL     1      12.677  63.586 -13.323  0.00  0.00    +0.000 OA
ATOM     29  C   UNL     1      13.959  63.324 -15.358  0.00  0.00    +0.000 C 
ATOM     30  O   UNL     1      12.473  63.245 -15.600  0.00  0.00    +0.000 OA
ENDROOT
BRANCH  24  25
ATOM     25  C   UNL     1      14.828  61.935 -13.682  0.00  0.00    +0.000 C 
ATOM     26  O   UNL     1      15.491  61.423 -12.436  0.00  0.00    +0.000 OA
ENDBRANCH  24  25
BRANCH   4   3
ATOM      3  O   UNL     1      13.476  61.700 -13.469  0.00  0.00    +0.000 OA
BRANCH   3   2
ATOM      1  O   UNL     1      12.803  60.728 -13.108  0.00  0.00    +0.000 OA
ATOM      2  C   UNL     1      12.672  60.812 -12.977  0.00  0.00    +0.000 C 
BRANCH   2  31
ATOM     31  C   UNL     1      11.462  60.287 -13.049  0.00  0.00    +0.000 A 
ATOM     32  C   UNL     1      10.795  60.660 -11.927  0.00  0.00    +0.000 A 
ATOM     33  C   UNL     1       9.938  59.729 -11.351  0.00  0.00    +0.000 A 
ATOM     34  O   UNL     1       9.302  60.078 -10.196  0.00  0.00    +0.000 OA
ATOM     35  C   UNL     1       9.838  58.441 -11.869  0.00  0.00    +0.000 A 
ATOM     36  O   UNL     1       8.872  57.581 -11.428  0.00  0.00    +0.000 OA
ATOM     37  C   UNL     1      10.596  58.103 -12.983  0.00  0.00    +0.000 A 
ATOM     38  O   UNL     1      10.795  56.791 -13.311  0.00  0.00    +0.000 OA
ATOM     39  C   UNL     1      11.067  59.183 -13.736  0.00  0.00    +0.000 A 
ENDBRANCH   2  31
ENDBRANCH   3   2
ENDBRANCH   4   3
BRANCH   5   6
ATOM      6  O   UNL     1      16.008  61.893 -16.137  0.00  0.00    +0.000 OA
BRANCH   6   7
ATOM      7  C   UNL     1      16.340  60.922 -16.960  0.00  0.00    +0.000 A 
ATOM      8  C   UNL     1      17.450  60.169 -16.586  0.00  0.00    +0.000 A 
ATOM      9  C   UNL     1      17.975  59.287 -17.525  0.00  0.00    +0.000 A 
ATOM     10  C   UNL     1      17.424  59.217 -18.805  0.00  0.00    +0.000 A 
ATOM     21  C   UNL     1      16.982  60.472 -19.198  0.00  0.00    +0.000 A 
ATOM     22  C   UNL     1      16.423  61.352 -18.280  0.00  0.00    +0.000 A 
BRANCH  10  11
ATOM     11  C   UNL     1      16.954  57.954 -19.367  0.00  0.00    +0.000 C 
ATOM     12  C   UNL     1      15.692  57.686 -19.445  0.00  0.00    +0.000 C 
BRANCH  12  13
ATOM     13  C   UNL     1      14.736  58.260 -18.482  0.00  0.00    +0.000 A 
ATOM     14  C   UNL     1      14.573  57.477 -17.338  0.00  0.00    +0.000 A 
ATOM     15  C   UNL     1      13.537  57.775 -16.474  0.00  0.00    +0.000 A 
ATOM     16  O   UNL     1      13.713  57.800 -15.092  0.00  0.00    +0.000 OA
ATOM     17  C   UNL     1      12.311  58.009 -17.086  0.00  0.00    +0.000 A 
ATOM     18  C   UNL     1      12.294  58.358 -18.435  0.00  0.00    +0.000 A 
ATOM     19  O   UNL     1      11.105  58.255 -19.173  0.00  0.00    +0.000 OA
ATOM     20  C   UNL     1      13.514  58.603 -19.058  0.00  0.00    +0.000 A 
ENDBRANCH  12  13
ENDBRANCH  10  11
ENDBRANCH   6   7
ENDBRANCH   5   6
TORSDOF 8
ENDMDL
MODEL 10
REMARK VINA RESULT:      -7.9     25.931     30.718
REMARK  Name = 
REMARK  8 active torsions:
REMARK  status: ('A' for Active; 'I' for Inactive)
REMARK    1  A    between atoms: C_2  and  O_3
REMARK    2  A    between atoms: C_2  and  C_31
REMARK    3  A    between atoms: O_3  and  C_4
REMARK    4  A    between atoms: C_5  and  O_6
REMARK    5  A    between atoms: O_6  and  C_7
REMARK    6  A    between atoms: C_10  and  C_11
REMARK    7  A    between atoms: C_12  and  C_13
REMARK    8  A    between atoms: C_24  and  C_25
REMARK                            x       y       z     vdW  Elec       q    Type
REMARK                         _______ _______ _______ _____ _____    ______ ____
ROOT
ATOM      4  C   UNL     1      24.439  35.993  18.620  0.00  0.00    +0.000 C 
ATOM      5  C   UNL     1      25.739  37.191  18.372  0.00  0.00    +0.000 C 
ATOM     23  O   UNL     1      26.873  36.689  19.337  0.00  0.00    +0.000 OA
ATOM     24  C   UNL     1      27.022  35.249  18.797  0.00  0.00    +0.000 C 
ATOM     27  C   UNL     1      26.122  34.512  20.136  0.00  0.00    +0.000 C 
ATOM     28  O   UNL     1      25.375  33.459  19.395  0.00  0.00    +0.000 OA
ATOM     29  C   UNL     1      24.842  35.658  20.251  0.00  0.00    +0.000 C 
ATOM     30  O   UNL     1      23.685  34.698  20.369  0.00  0.00    +0.000 OA
ENDROOT
BRANCH  24  25
ATOM     25  C   UNL     1      25.845  35.843  18.141  0.00  0.00    +0.000 C 
ATOM     26  O   UNL     1      26.826  35.810  17.004  0.00  0.00    +0.000 OA
ENDBRANCH  24  25
BRANCH   4   3
ATOM      3  O   UNL     1      24.989  34.783  17.874  0.00  0.00    +0.000 OA
BRANCH   3   2
ATOM      1  O   UNL     1      24.363  34.166  17.005  0.00  0.00    +0.000 OA
ATOM      2  C   UNL     1      24.426  34.255  16.835  0.00  0.00    +0.000 C 
BRANCH   2  31
ATOM     31  C   UNL     1      24.577  33.405  15.834  0.00  0.00    +0.000 A 
ATOM     32  C   UNL     1      24.345  32.161  16.324  0.00  0.00    +0.000 A 
ATOM     33  C   UNL     1      25.134  31.124  15.841  0.00  0.00    +0.000 A 
ATOM     34  O   UNL     1      24.942  29.879  16.365  0.00  0.00    +0.000 OA
ATOM     35  C   UNL     1      26.170  31.379  14.947  0.00  0.00    +0.000 A 
ATOM     36  O   UNL     1      26.830  30.354  14.328  0.00  0.00    +0.000 OA
ATOM     37  C   UNL     1      26.396  32.685  14.532  0.00  0.00    +0.000 A 
ATOM     38  O   UNL     1      27.582  33.029  13.947  0.00  0.00    +0.000 OA
ATOM     39  C   UNL     1      25.321  33.561  14.708  0.00  0.00    +0.000 A 
ENDBRANCH   2  31
ENDBRANCH   3   2
ENDBRANCH   4   3
BRANCH   5   6
ATOM      6  O   UNL     1      25.082  38.127  19.415  0.00  0.00    +0.000 OA
BRANCH   6   7
ATOM      7  C   UNL     1      24.756  39.365  19.112  0.00  0.00    +0.000 A 
ATOM      8  C   UNL     1      25.367  39.889  17.976  0.00  0.00    +0.000 A 
ATOM      9  C   UNL     1      25.235  41.254  17.746  0.00  0.00    +0.000 A 
ATOM     10  C   UNL     1      24.555  42.056  18.663  0.00  0.00    +0.000 A 
ATOM     21  C   UNL     1      24.765  41.584  19.950  0.00  0.00    +0.000 A 
ATOM     22  C   UNL     1      24.864  40.222  20.203  0.00  0.00    +0.000 A 
BRANCH  10  11
ATOM     11  C   UNL     1      23.436  42.902  18.256  0.00  0.00    +0.000 C 
ATOM     12  C   UNL     1      23.593  43.838  17.379  0.00  0.00    +0.000 C 
BRANCH  12  13
ATOM     13  C   UNL     1      24.892  44.512  17.214  0.00  0.00    +0.000 A 
ATOM     14  C   UNL     1      25.016  45.663  17.993  0.00  0.00    +0.000 A 
ATOM     15  C   UNL     1      26.079  46.513  17.755  0.00  0.00    +0.000 A 
ATOM     16  O   UNL     1      26.832  47.062  18.792  0.00  0.00    +0.000 OA
ATOM     17  C   UNL     1      26.311  46.801  16.415  0.00  0.00    +0.000 A 
ATOM     18  C   UNL     1      25.805  45.934  15.448  0.00  0.00    +0.000 A 
ATOM     19  O   UNL     1      25.701  46.355  14.114  0.00  0.00    +0.000 OA
ATOM     20  C   UNL     1      25.226  44.746  15.881  0.00  0.00    +0.000 A 
ENDBRANCH  12  13
ENDBRANCH  10  11
ENDBRANCH   6   7
ENDBRANCH   5   6
TORSDOF 8
ENDMDL
