MODEL 1
REMARK VINA RESULT:      -5.7      0.000      0.000
REMARK  Name = 
REMARK  4 active torsions:
REMARK  status: ('A' for Active; 'I' for Inactive)
REMARK    1  A    between atoms: S_2  and  O_5
REMARK    2  A    between atoms: O_5  and  C_6
REMARK    3  A    between atoms: C_11  and  C_12
REMARK    4  A    between atoms: C_13  and  C_14
REMARK                            x       y       z     vdW  Elec       q    Type
REMARK                         _______ _______ _______ _____ _____    ______ ____
ROOT
ATOM      6  C   UNL     1      22.482  56.766  -3.613  0.00  0.00    +0.000 A 
ATOM      7  C   UNL     1      21.945  55.850  -4.507  0.00  0.00    +0.000 A 
ATOM      8  C   UNL     1      22.729  54.893  -5.138  0.00  0.00    +0.000 A 
ATOM      9  O   UNL     1      22.266  54.245  -6.284  0.00  0.00    +0.000 OA
ATOM     10  C   UNL     1      24.099  55.034  -5.019  0.00  0.00    +0.000 A 
ATOM     11  C   UNL     1      24.683  55.970  -4.214  0.00  0.00    +0.000 A 
ATOM     21  C   UNL     1      23.864  56.883  -3.563  0.00  0.00    +0.000 A 
ENDROOT
BRANCH  11  12
ATOM     12  C   UNL     1      26.097  56.002  -3.875  0.00  0.00    +0.000 C 
ATOM     13  C   UNL     1      26.729  57.132  -4.193  0.00  0.00    +0.000 C 
BRANCH  13  14
ATOM     14  C   UNL     1      26.617  57.532  -5.603  0.00  0.00    +0.000 A 
ATOM     15  C   UNL     1      27.568  56.995  -6.459  0.00  0.00    +0.000 A 
ATOM     16  C   UNL     1      27.912  57.696  -7.601  0.00  0.00    +0.000 A 
ATOM     17  C   UNL     1      27.721  59.067  -7.696  0.00  0.00    +0.000 A 
ATOM     18  O   UNL     1      28.682  59.908  -8.258  0.00  0.00    +0.000 OA
ATOM     19  C   UNL     1      26.790  59.619  -6.840  0.00  0.00    +0.000 A 
ATOM     20  C   UNL     1      26.261  58.858  -5.820  0.00  0.00    +0.000 A 
ENDBRANCH  13  14
ENDBRANCH  11  12
BRANCH   6   5
ATOM      5  O   UNL     1      21.645  57.211  -2.614  0.00  0.00    +0.000 OA
BRANCH   5   2
ATOM      1  O   UNL     1      21.167  59.615  -3.491  0.00  0.00    +0.000 OA
ATOM      2  S   UNL     1      21.387  58.831  -2.217  0.00  0.00    +0.000 S 
ATOM      3  O   UNL     1      22.561  59.376  -1.439  0.00  0.00    +0.000 OA
ATOM      4  O   UNL     1      20.018  58.959  -1.250  0.00  0.00    +0.000 OA
ENDBRANCH   5   2
ENDBRANCH   6   5
TORSDOF 4
ENDMDL
MODEL 2
REMARK VINA RESULT:      -5.7     21.636     23.164
REMARK  Name = 
REMARK  4 active torsions:
REMARK  status: ('A' for Active; 'I' for Inactive)
REMARK    1  A    between atoms: S_2  and  O_5
REMARK    2  A    between atoms: O_5  and  C_6
REMARK    3  A    between atoms: C_11  and  C_12
REMARK    4  A    between atoms: C_13  and  C_14
REMARK                            x       y       z     vdW  Elec       q    Type
REMARK                         _______ _______ _______ _____ _____    ______ ____
ROOT
ATOM      6  C   UNL     1       3.954  49.096 -12.863  0.00  0.00    +0.000 A 
ATOM      7  C   UNL     1       2.942  48.150 -12.965  0.00  0.00    +0.000 A 
ATOM      8  C   UNL     1       3.048  46.895 -12.380  0.00  0.00    +0.000 A 
ATOM      9  O   UNL     1       2.220  45.852 -12.794  0.00  0.00    +0.000 OA
ATOM     10  C   UNL     1       4.291  46.540 -11.890  0.00  0.00    +0.000 A 
ATOM     11  C   UNL     1       5.346  47.406 -11.839  0.00  0.00    +0.000 A 
ATOM     21  C   UNL     1       5.189  48.670 -12.394  0.00  0.00    +0.000 A 
ENDROOT
BRANCH  11  12
ATOM     12  C   UNL     1       6.587  47.156 -11.123  0.00  0.00    +0.000 C 
ATOM     13  C   UNL     1       7.671  47.046 -11.892  0.00  0.00    +0.000 C 
BRANCH  13  14
ATOM     14  C   UNL     1       7.578  46.036 -12.955  0.00  0.00    +0.000 A 
ATOM     15  C   UNL     1       7.502  44.717 -12.530  0.00  0.00    +0.000 A 
ATOM     16  C   UNL     1       7.973  43.718 -13.362  0.00  0.00    +0.000 A 
ATOM     17  C   UNL     1       8.910  43.978 -14.351  0.00  0.00    +0.000 A 
ATOM     18  O   UNL     1       9.986  43.122 -14.591  0.00  0.00    +0.000 OA
ATOM     19  C   UNL     1       9.010  45.288 -14.774  0.00  0.00    +0.000 A 
ATOM     20  C   UNL     1       8.357  46.284 -14.080  0.00  0.00    +0.000 A 
ENDBRANCH  13  14
ENDBRANCH  11  12
BRANCH   6   5
ATOM      5  O   UNL     1       3.565  50.416 -12.886  0.00  0.00    +0.000 OA
BRANCH   5   2
ATOM      1  O   UNL     1       3.434  52.878 -13.721  0.00  0.00    +0.000 OA
ATOM      2  S   UNL     1       3.865  51.493 -14.149  0.00  0.00    +0.000 S 
ATOM      3  O   UNL     1       3.133  51.059 -15.397  0.00  0.00    +0.000 OA
ATOM      4  O   UNL     1       5.510  51.511 -14.491  0.00  0.00    +0.000 OA
ENDBRANCH   5   2
ENDBRANCH   6   5
TORSDOF 4
ENDMDL
MODEL 3
REMARK VINA RESULT:      -5.7     26.147     28.091
REMARK  Name = 
REMARK  4 active torsions:
REMARK  status: ('A' for Active; 'I' for Inactive)
REMARK    1  A    between atoms: S_2  and  O_5
REMARK    2  A    between atoms: O_5  and  C_6
REMARK    3  A    between atoms: C_11  and  C_12
REMARK    4  A    between atoms: C_13  and  C_14
REMARK                            x       y       z     vdW  Elec       q    Type
REMARK                         _______ _______ _______ _____ _____    ______ ____
ROOT
ATOM      6  C   UNL     1      26.383  44.197  16.600  0.00  0.00    +0.000 A 
ATOM      7  C   UNL     1      26.283  45.579  16.682  0.00  0.00    +0.000 A 
ATOM      8  C   UNL     1      25.117  46.208  17.100  0.00  0.00    +0.000 A 
ATOM      9  O   UNL     1      24.906  47.559  16.824  0.00  0.00    +0.000 OA
ATOM     10  C   UNL     1      23.988  45.416  17.210  0.00  0.00    +0.000 A 
ATOM     11  C   UNL     1      24.015  44.059  17.061  0.00  0.00    +0.000 A 
ATOM     21  C   UNL     1      25.210  43.460  16.685  0.00  0.00    +0.000 A 
ENDROOT
BRANCH  11  12
ATOM     12  C   UNL     1      22.914  43.170  17.398  0.00  0.00    +0.000 C 
ATOM     13  C   UNL     1      22.662  43.051  18.701  0.00  0.00    +0.000 C 
BRANCH  13  14
ATOM     14  C   UNL     1      23.811  42.641  19.522  0.00  0.00    +0.000 A 
ATOM     15  C   UNL     1      24.315  41.374  19.263  0.00  0.00    +0.000 A 
ATOM     16  C   UNL     1      24.957  40.690  20.280  0.00  0.00    +0.000 A 
ATOM     17  C   UNL     1      24.719  40.983  21.615  0.00  0.00    +0.000 A 
ATOM     18  O   UNL     1      24.565  39.981  22.574  0.00  0.00    +0.000 OA
ATOM     19  C   UNL     1      24.202  42.233  21.887  0.00  0.00    +0.000 A 
ATOM     20  C   UNL     1      23.759  43.032  20.855  0.00  0.00    +0.000 A 
ENDBRANCH  13  14
ENDBRANCH  11  12
BRANCH   6   5
ATOM      5  O   UNL     1      27.635  43.659  16.802  0.00  0.00    +0.000 OA
BRANCH   5   2
ATOM      1  O   UNL     1      27.370  43.252  19.359  0.00  0.00    +0.000 OA
ATOM      2  S   UNL     1      28.085  42.727  18.134  0.00  0.00    +0.000 S 
ATOM      3  O   UNL     1      29.583  42.766  18.321  0.00  0.00    +0.000 OA
ATOM      4  O   UNL     1      27.634  41.129  17.877  0.00  0.00    +0.000 OA
ENDBRANCH   5   2
ENDBRANCH   6   5
TORSDOF 4
ENDMDL
MODEL 4
REMARK VINA RESULT:      -5.6     30.032     32.356
REMARK  Name = 
REMARK  4 active torsions:
REMARK  status: ('A' for Active; 'I' for Inactive)
REMARK    1  A    between atoms: S_2  and  O_5
REMARK    2  A    between atoms: O_5  and  C_6
REMARK    3  A    between atoms: C_11  and  C_12
REMARK    4  A    between atoms: C_13  and  C_14
REMARK                            x       y       z     vdW  Elec       q    Type
REMARK                         _______ _______ _______ _____ _____    ______ ____
ROOT
ATOM      6  C   UNL     1       8.188  55.248  23.518  0.00  0.00    +0.000 A 
ATOM      7  C   UNL     1       7.291  54.969  24.540  0.00  0.00    +0.000 A 
ATOM      8  C   UNL     1       5.918  54.948  24.328  0.00  0.00    +0.000 A 
ATOM      9  O   UNL     1       5.036  55.041  25.405  0.00  0.00    +0.000 OA
ATOM     10  C   UNL     1       5.468  55.441  23.117  0.00  0.00    +0.000 A 
ATOM     11  C   UNL     1       6.309  55.806  22.104  0.00  0.00    +0.000 A 
ATOM     21  C   UNL     1       7.678  55.771  22.338  0.00  0.00    +0.000 A 
ENDROOT
BRANCH  11  12
ATOM     12  C   UNL     1       5.885  56.101  20.744  0.00  0.00    +0.000 C 
ATOM     13  C   UNL     1       5.168  55.144  20.156  0.00  0.00    +0.000 C 
BRANCH  13  14
ATOM     14  C   UNL     1       5.805  53.819  20.128  0.00  0.00    +0.000 A 
ATOM     15  C   UNL     1       6.801  53.648  19.177  0.00  0.00    +0.000 A 
ATOM     16  C   UNL     1       7.046  52.379  18.685  0.00  0.00    +0.000 A 
ATOM     17  C   UNL     1       6.081  51.383  18.731  0.00  0.00    +0.000 A 
ATOM     18  O   UNL     1       5.853  50.526  17.654  0.00  0.00    +0.000 OA
ATOM     19  C   UNL     1       5.074  51.546  19.661  0.00  0.00    +0.000 A 
ATOM     20  C   UNL     1       4.948  52.743  20.333  0.00  0.00    +0.000 A 
ENDBRANCH  13  14
ENDBRANCH  11  12
BRANCH   6   5
ATOM      5  O   UNL     1       9.430  54.661  23.615  0.00  0.00    +0.000 OA
BRANCH   5   2
ATOM      1  O   UNL     1      10.613  56.312  25.242  0.00  0.00    +0.000 OA
ATOM      2  S   UNL     1      10.856  55.471  24.009  0.00  0.00    +0.000 S 
ATOM      3  O   UNL     1      11.314  56.327  22.851  0.00  0.00    +0.000 OA
ATOM      4  O   UNL     1      12.065  54.351  24.338  0.00  0.00    +0.000 OA
ENDBRANCH   5   2
ENDBRANCH   6   5
TORSDOF 4
ENDMDL
MODEL 5
REMARK VINA RESULT:      -5.6      3.031      4.422
REMARK  Name = 
REMARK  4 active torsions:
REMARK  status: ('A' for Active; 'I' for Inactive)
REMARK    1  A    between atoms: S_2  and  O_5
REMARK    2  A    between atoms: O_5  and  C_6
REMARK    3  A    between atoms: C_11  and  C_12
REMARK    4  A    between atoms: C_13  and  C_14
REMARK                            x       y       z     vdW  Elec       q    Type
REMARK                         _______ _______ _______ _____ _____    ______ ____
ROOT
ATOM      6  C   UNL     1      25.385  54.784  -5.995  0.00  0.00    +0.000 A 
ATOM      7  C   UNL     1      26.322  53.796  -5.723  0.00  0.00    +0.000 A 
ATOM      8  C   UNL     1      27.556  53.757  -6.359  0.00  0.00    +0.000 A 
ATOM      9  O   UNL     1      28.312  52.585  -6.361  0.00  0.00    +0.000 OA
ATOM     10  C   UNL     1      27.725  54.604  -7.439  0.00  0.00    +0.000 A 
ATOM     11  C   UNL     1      26.801  55.542  -7.801  0.00  0.00    +0.000 A 
ATOM     21  C   UNL     1      25.596  55.581  -7.112  0.00  0.00    +0.000 A 
ENDROOT
BRANCH  11  12
ATOM     12  C   UNL     1      27.035  56.601  -8.770  0.00  0.00    +0.000 C 
ATOM     13  C   UNL     1      28.191  57.250  -8.630  0.00  0.00    +0.000 C 
BRANCH  13  14
ATOM     14  C   UNL     1      28.421  57.829  -7.299  0.00  0.00    +0.000 A 
ATOM     15  C   UNL     1      27.645  58.935  -6.980  0.00  0.00    +0.000 A 
ATOM     16  C   UNL     1      28.139  59.859  -6.077  0.00  0.00    +0.000 A 
ATOM     17  C   UNL     1      29.500  59.989  -5.841  0.00  0.00    +0.000 A 
ATOM     18  O   UNL     1      30.112  61.238  -5.723  0.00  0.00    +0.000 OA
ATOM     19  C   UNL     1      30.287  58.904  -6.168  0.00  0.00    +0.000 A 
ATOM     20  C   UNL     1      29.748  57.857  -6.884  0.00  0.00    +0.000 A 
ENDBRANCH  13  14
ENDBRANCH  11  12
BRANCH   6   5
ATOM      5  O   UNL     1      24.540  55.129  -4.964  0.00  0.00    +0.000 OA
BRANCH   5   2
ATOM      1  O   UNL     1      22.467  54.232  -6.256  0.00  0.00    +0.000 OA
ATOM      2  S   UNL     1      22.863  54.947  -4.984  0.00  0.00    +0.000 S 
ATOM      3  O   UNL     1      22.185  56.293  -4.885  0.00  0.00    +0.000 OA
ATOM      4  O   UNL     1      22.384  54.024  -3.664  0.00  0.00    +0.000 OA
ENDBRANCH   5   2
ENDBRANCH   6   5
TORSDOF 4
ENDMDL
MODEL 6
REMARK VINA RESULT:      -5.5     26.680     28.530
REMARK  Name = 
REMARK  4 active torsions:
REMARK  status: ('A' for Active; 'I' for Inactive)
REMARK    1  A    between atoms: S_2  and  O_5
REMARK    2  A    between atoms: O_5  and  C_6
REMARK    3  A    between atoms: C_11  and  C_12
REMARK    4  A    between atoms: C_13  and  C_14
REMARK                            x       y       z     vdW  Elec       q    Type
REMARK                         _______ _______ _______ _____ _____    ______ ____
ROOT
ATOM      6  C   UNL     1      24.918  43.809  17.155  0.00  0.00    +0.000 A 
ATOM      7  C   UNL     1      23.535  43.760  17.047  0.00  0.00    +0.000 A 
ATOM      8  C   UNL     1      22.738  43.223  18.050  0.00  0.00    +0.000 A 
ATOM      9  O   UNL     1      21.424  42.843  17.779  0.00  0.00    +0.000 OA
ATOM     10  C   UNL     1      23.387  42.531  19.056  0.00  0.00    +0.000 A 
ATOM     11  C   UNL     1      24.747  42.480  19.165  0.00  0.00    +0.000 A 
ATOM     21  C   UNL     1      25.512  43.067  18.166  0.00  0.00    +0.000 A 
ENDROOT
BRANCH  11  12
ATOM     12  C   UNL     1      25.464  41.972  20.325  0.00  0.00    +0.000 C 
ATOM     13  C   UNL     1      25.968  40.746  20.185  0.00  0.00    +0.000 C 
BRANCH  13  14
ATOM     14  C   UNL     1      24.994  39.714  19.798  0.00  0.00    +0.000 A 
ATOM     15  C   UNL     1      24.561  38.881  20.820  0.00  0.00    +0.000 A 
ATOM     16  C   UNL     1      24.139  37.602  20.505  0.00  0.00    +0.000 A 
ATOM     17  C   UNL     1      24.551  36.966  19.343  0.00  0.00    +0.000 A 
ATOM     18  O   UNL     1      24.930  35.623  19.331  0.00  0.00    +0.000 OA
ATOM     19  C   UNL     1      25.000  37.781  18.323  0.00  0.00    +0.000 A 
ATOM     20  C   UNL     1      25.216  39.121  18.561  0.00  0.00    +0.000 A 
ENDBRANCH  13  14
ENDBRANCH  11  12
BRANCH   6   5
ATOM      5  O   UNL     1      25.548  44.846  16.503  0.00  0.00    +0.000 OA
BRANCH   5   2
ATOM      1  O   UNL     1      27.424  46.535  17.136  0.00  0.00    +0.000 OA
ATOM      2  S   UNL     1      25.926  46.338  17.194  0.00  0.00    +0.000 S 
ATOM      3  O   UNL     1      25.425  46.401  18.617  0.00  0.00    +0.000 OA
ATOM      4  O   UNL     1      25.177  47.564  16.323  0.00  0.00    +0.000 OA
ENDBRANCH   5   2
ENDBRANCH   6   5
TORSDOF 4
ENDMDL
MODEL 7
REMARK VINA RESULT:      -5.5     16.017     17.526
REMARK  Name = 
REMARK  4 active torsions:
REMARK  status: ('A' for Active; 'I' for Inactive)
REMARK    1  A    between atoms: S_2  and  O_5
REMARK    2  A    between atoms: O_5  and  C_6
REMARK    3  A    between atoms: C_11  and  C_12
REMARK    4  A    between atoms: C_13  and  C_14
REMARK                            x       y       z     vdW  Elec       q    Type
REMARK                         _______ _______ _______ _____ _____    ______ ____
ROOT
ATOM      6  C   UNL     1      16.310  67.807 -10.922  0.00  0.00    +0.000 A 
ATOM      7  C   UNL     1      15.365  67.055 -10.235  0.00  0.00    +0.000 A 
ATOM      8  C   UNL     1      14.242  66.534 -10.865  0.00  0.00    +0.000 A 
ATOM      9  O   UNL     1      13.142  66.118 -10.115  0.00  0.00    +0.000 OA
ATOM     10  C   UNL     1      13.982  66.984 -12.147  0.00  0.00    +0.000 A 
ATOM     11  C   UNL     1      14.840  67.790 -12.840  0.00  0.00    +0.000 A 
ATOM     21  C   UNL     1      15.976  68.257 -12.192  0.00  0.00    +0.000 A 
ENDROOT
BRANCH  11  12
ATOM     12  C   UNL     1      14.725  68.092 -14.258  0.00  0.00    +0.000 C 
ATOM     13  C   UNL     1      14.451  69.365 -14.544  0.00  0.00    +0.000 C 
BRANCH  13  14
ATOM     14  C   UNL     1      13.248  69.904 -13.893  0.00  0.00    +0.000 A 
ATOM     15  C   UNL     1      12.043  69.350 -14.301  0.00  0.00    +0.000 A 
ATOM     16  C   UNL     1      10.893  70.114 -14.214  0.00  0.00    +0.000 A 
ATOM     17  C   UNL     1      10.942  71.500 -14.190  0.00  0.00    +0.000 A 
ATOM     18  O   UNL     1      10.048  72.283 -14.922  0.00  0.00    +0.000 OA
ATOM     19  C   UNL     1      12.140  72.066 -13.802  0.00  0.00    +0.000 A 
ATOM     20  C   UNL     1      13.259  71.275 -13.664  0.00  0.00    +0.000 A 
ENDBRANCH  13  14
ENDBRANCH  11  12
BRANCH   6   5
ATOM      5  O   UNL     1      17.603  67.742 -10.454  0.00  0.00    +0.000 OA
BRANCH   5   2
ATOM      1  O   UNL     1      19.786  66.525  -9.728  0.00  0.00    +0.000 OA
ATOM      2  S   UNL     1      18.680  66.479 -10.758  0.00  0.00    +0.000 S 
ATOM      3  O   UNL     1      19.238  66.588 -12.158  0.00  0.00    +0.000 OA
ATOM      4  O   UNL     1      17.873  65.011 -10.632  0.00  0.00    +0.000 OA
ENDBRANCH   5   2
ENDBRANCH   6   5
TORSDOF 4
ENDMDL
MODEL 8
REMARK VINA RESULT:      -5.5     45.554     48.664
REMARK  Name = 
REMARK  4 active torsions:
REMARK  status: ('A' for Active; 'I' for Inactive)
REMARK    1  A    between atoms: S_2  and  O_5
REMARK    2  A    between atoms: O_5  and  C_6
REMARK    3  A    between atoms: C_11  and  C_12
REMARK    4  A    between atoms: C_13  and  C_14
REMARK                            x       y       z     vdW  Elec       q    Type
REMARK                         _______ _______ _______ _____ _____    ______ ____
ROOT
ATOM      6  C   UNL     1     -14.290  70.642  24.726  0.00  0.00    +0.000 A 
ATOM      7  C   UNL     1     -15.202  70.682  23.679  0.00  0.00    +0.000 A 
ATOM      8  C   UNL     1     -15.352  71.808  22.879  0.00  0.00    +0.000 A 
ATOM      9  O   UNL     1     -16.497  71.971  22.100  0.00  0.00    +0.000 OA
ATOM     10  C   UNL     1     -14.726  72.964  23.307  0.00  0.00    +0.000 A 
ATOM     11  C   UNL     1     -13.880  72.998  24.379  0.00  0.00    +0.000 A 
ATOM     21  C   UNL     1     -13.720  71.841  25.130  0.00  0.00    +0.000 A 
ENDROOT
BRANCH  11  12
ATOM     12  C   UNL     1     -13.024  74.123  24.720  0.00  0.00    +0.000 C 
ATOM     13  C   UNL     1     -12.214  74.533  23.744  0.00  0.00    +0.000 C 
BRANCH  13  14
ATOM     14  C   UNL     1     -11.347  73.490  23.177  0.00  0.00    +0.000 A 
ATOM     15  C   UNL     1     -10.077  73.396  23.731  0.00  0.00    +0.000 A 
ATOM     16  C   UNL     1      -9.045  72.901  22.954  0.00  0.00    +0.000 A 
ATOM     17  C   UNL     1      -9.097  72.937  21.568  0.00  0.00    +0.000 A 
ATOM     18  O   UNL     1      -7.990  73.297  20.798  0.00  0.00    +0.000 OA
ATOM     19  C   UNL     1     -10.351  73.047  21.003  0.00  0.00    +0.000 A 
ATOM     20  C   UNL     1     -11.441  73.321  21.800  0.00  0.00    +0.000 A 
ENDBRANCH  13  14
ENDBRANCH  11  12
BRANCH   6   5
ATOM      5  O   UNL     1     -13.760  69.408  25.030  0.00  0.00    +0.000 OA
BRANCH   5   2
ATOM      1  O   UNL     1     -12.901  67.703  23.261  0.00  0.00    +0.000 OA
ATOM      2  S   UNL     1     -12.419  68.715  24.276  0.00  0.00    +0.000 S 
ATOM      3  O   UNL     1     -11.514  68.070  25.299  0.00  0.00    +0.000 OA
ATOM      4  O   UNL     1     -11.542  69.910  23.485  0.00  0.00    +0.000 OA
ENDBRANCH   5   2
ENDBRANCH   6   5
TORSDOF 4
ENDMDL
MODEL 9
REMARK VINA RESULT:      -5.5     21.894     23.764
REMARK  Name = 
REMARK  4 active torsions:
REMARK  status: ('A' for Active; 'I' for Inactive)
REMARK    1  A    between atoms: S_2  and  O_5
REMARK    2  A    between atoms: O_5  and  C_6
REMARK    3  A    between atoms: C_11  and  C_12
REMARK    4  A    between atoms: C_13  and  C_14
REMARK                            x       y       z     vdW  Elec       q    Type
REMARK                         _______ _______ _______ _____ _____    ______ ____
ROOT
ATOM      6  C   UNL     1       3.554  46.929 -12.735  0.00  0.00    +0.000 A 
ATOM      7  C   UNL     1       3.319  48.157 -13.340  0.00  0.00    +0.000 A 
ATOM      8  C   UNL     1       4.277  49.163 -13.357  0.00  0.00    +0.000 A 
ATOM      9  O   UNL     1       3.910  50.482 -13.622  0.00  0.00    +0.000 OA
ATOM     10  C   UNL     1       5.386  48.980 -12.551  0.00  0.00    +0.000 A 
ATOM     11  C   UNL     1       5.627  47.821 -11.870  0.00  0.00    +0.000 A 
ATOM     21  C   UNL     1       4.666  46.819 -11.912  0.00  0.00    +0.000 A 
ENDROOT
BRANCH  11  12
ATOM     12  C   UNL     1       6.881  47.497 -11.208  0.00  0.00    +0.000 C 
ATOM     13  C   UNL     1       7.909  47.270 -12.025  0.00  0.00    +0.000 C 
BRANCH  13  14
ATOM     14  C   UNL     1       7.679  46.230 -13.038  0.00  0.00    +0.000 A 
ATOM     15  C   UNL     1       7.589  44.930 -12.559  0.00  0.00    +0.000 A 
ATOM     16  C   UNL     1       7.942  43.885 -13.394  0.00  0.00    +0.000 A 
ATOM     17  C   UNL     1       8.793  44.072 -14.473  0.00  0.00    +0.000 A 
ATOM     18  O   UNL     1       9.807  43.164 -14.779  0.00  0.00    +0.000 OA
ATOM     19  C   UNL     1       8.905  45.362 -14.951  0.00  0.00    +0.000 A 
ATOM     20  C   UNL     1       8.358  46.407 -14.238  0.00  0.00    +0.000 A 
ENDBRANCH  13  14
ENDBRANCH  11  12
BRANCH   6   5
ATOM      5  O   UNL     1       2.894  45.846 -13.271  0.00  0.00    +0.000 OA
BRANCH   5   2
ATOM      1  O   UNL     1       4.081  43.545 -13.003  0.00  0.00    +0.000 OA
ATOM      2  S   UNL     1       3.638  44.546 -14.047  0.00  0.00    +0.000 S 
ATOM      3  O   UNL     1       4.810  45.024 -14.871  0.00  0.00    +0.000 OA
ATOM      4  O   UNL     1       2.540  43.808 -15.083  0.00  0.00    +0.000 OA
ENDBRANCH   5   2
ENDBRANCH   6   5
TORSDOF 4
ENDMDL
MODEL 10
REMARK VINA RESULT:      -5.4     26.445     28.103
REMARK  Name = 
REMARK  4 active torsions:
REMARK  status: ('A' for Active; 'I' for Inactive)
REMARK    1  A    between atoms: S_2  and  O_5
REMARK    2  A    between atoms: O_5  and  C_6
REMARK    3  A    between atoms: C_11  and  C_12
REMARK    4  A    between atoms: C_13  and  C_14
REMARK                            x       y       z     vdW  Elec       q    Type
REMARK                         _______ _______ _______ _____ _____    ______ ____
ROOT
ATOM      6  C   UNL     1      25.376  40.766  20.055  0.00  0.00    +0.000 A 
ATOM      7  C   UNL     1      25.490  41.299  21.332  0.00  0.00    +0.000 A 
ATOM      8  C   UNL     1      24.662  42.321  21.778  0.00  0.00    +0.000 A 
ATOM      9  O   UNL     1      25.021  43.086  22.888  0.00  0.00    +0.000 OA
ATOM     10  C   UNL     1      23.874  42.944  20.827  0.00  0.00    +0.000 A 
ATOM     11  C   UNL     1      23.785  42.509  19.535  0.00  0.00    +0.000 A 
ATOM     21  C   UNL     1      24.596  41.455  19.136  0.00  0.00    +0.000 A 
ENDROOT
BRANCH  11  12
ATOM     12  C   UNL     1      22.802  42.979  18.572  0.00  0.00    +0.000 C 
ATOM     13  C   UNL     1      23.294  43.313  17.379  0.00  0.00    +0.000 C 
BRANCH  13  14
ATOM     14  C   UNL     1      24.374  44.310  17.409  0.00  0.00    +0.000 A 
ATOM     15  C   UNL     1      23.984  45.613  17.683  0.00  0.00    +0.000 A 
ATOM     16  C   UNL     1      24.749  46.656  17.193  0.00  0.00    +0.000 A 
ATOM     17  C   UNL     1      25.580  46.494  16.095  0.00  0.00    +0.000 A 
ATOM     18  O   UNL     1      25.667  47.456  15.087  0.00  0.00    +0.000 OA
ATOM     19  C   UNL     1      25.965  45.202  15.800  0.00  0.00    +0.000 A 
ATOM     20  C   UNL     1      25.364  44.144  16.447  0.00  0.00    +0.000 A 
ENDBRANCH  13  14
ENDBRANCH  11  12
BRANCH   6   5
ATOM      5  O   UNL     1      25.733  39.444  19.908  0.00  0.00    +0.000 OA
BRANCH   5   2
ATOM      1  O   UNL     1      24.584  38.179  17.945  0.00  0.00    +0.000 OA
ATOM      2  S   UNL     1      25.935  38.653  18.431  0.00  0.00    +0.000 S 
ATOM      3  O   UNL     1      26.895  37.497  18.580  0.00  0.00    +0.000 OA
ATOM      4  O   UNL     1      26.579  39.723  17.307  0.00  0.00    +0.000 OA
ENDBRANCH   5   2
ENDBRANCH   6   5
TORSDOF 4
ENDMDL
