MODEL 1
REMARK VINA RESULT:      -6.9      0.000      0.000
REMARK  Name = 
REMARK  5 active torsions:
REMARK  status: ('A' for Active; 'I' for Inactive)
REMARK    1  A    between atoms: C_2  and  C_3
REMARK    2  A    between atoms: C_5  and  O_6
REMARK    3  A    between atoms: O_6  and  C_7
REMARK    4  A    between atoms: C_10  and  C_11
REMARK    5  A    between atoms: C_12  and  C_13
REMARK                            x       y       z     vdW  Elec       q    Type
REMARK                         _______ _______ _______ _____ _____    ______ ____
ROOT
ATOM      7  C   UNL     1      19.100  65.551  13.337  0.00  0.00    +0.000 A 
ATOM      8  C   UNL     1      19.120  65.819  14.695  0.00  0.00    +0.000 A 
ATOM      9  C   UNL     1      19.631  64.891  15.596  0.00  0.00    +0.000 A 
ATOM     10  C   UNL     1      20.004  63.637  15.133  0.00  0.00    +0.000 A 
ATOM     21  C   UNL     1      20.326  63.543  13.780  0.00  0.00    +0.000 A 
ATOM     22  C   UNL     1      19.568  64.320  12.909  0.00  0.00    +0.000 A 
ENDROOT
BRANCH  10  11
ATOM     11  C   UNL     1      20.884  62.753  15.921  0.00  0.00    +0.000 C 
ATOM     12  C   UNL     1      20.295  61.548  15.994  0.00  0.00    +0.000 C 
BRANCH  12  13
ATOM     13  C   UNL     1      19.282  61.598  17.049  0.00  0.00    +0.000 A 
ATOM     14  C   UNL     1      17.934  61.583  16.877  0.00  0.00    +0.000 A 
ATOM     15  C   UNL     1      17.166  61.645  18.029  0.00  0.00    +0.000 A 
ATOM     16  O   UNL     1      15.838  62.046  18.034  0.00  0.00    +0.000 OA
ATOM     17  C   UNL     1      17.688  61.378  19.292  0.00  0.00    +0.000 A 
ATOM     18  C   UNL     1      19.039  61.230  19.446  0.00  0.00    +0.000 A 
ATOM     19  O   UNL     1      19.580  60.626  20.578  0.00  0.00    +0.000 OA
ATOM     20  C   UNL     1      19.818  61.496  18.330  0.00  0.00    +0.000 A 
ENDBRANCH  12  13
ENDBRANCH  10  11
BRANCH   7   6
ATOM      6  O   UNL     1      19.007  66.652  12.537  0.00  0.00    +0.000 OA
BRANCH   6   5
ATOM      3  C   UNL     1      17.470  67.098  11.225  0.00  0.00    +0.000 C 
ATOM      4  O   UNL     1      17.002  67.794  12.495  0.00  0.00    +0.000 OA
ATOM      5  C   UNL     1      18.279  67.778  13.364  0.00  0.00    +0.000 C 
ATOM     23  C   UNL     1      19.060  69.120  12.527  0.00  0.00    +0.000 C 
ATOM     24  O   UNL     1      19.673  68.329  11.409  0.00  0.00    +0.000 OA
ATOM     25  C   UNL     1      17.602  69.591  11.730  0.00  0.00    +0.000 C 
ATOM     26  O   UNL     1      18.320  70.713  11.024  0.00  0.00    +0.000 OA
ATOM     27  C   UNL     1      17.802  68.576  10.350  0.00  0.00    +0.000 C 
ATOM     28  O   UNL     1      16.384  68.878   9.954  0.00  0.00    +0.000 OA
BRANCH   3   2
ATOM      1  O   UNL     1      15.620  66.358  11.026  0.00  0.00    +0.000 OA
ATOM      2  C   UNL     1      15.898  66.919  10.718  0.00  0.00    +0.000 C 
ENDBRANCH   3   2
ENDBRANCH   6   5
ENDBRANCH   7   6
TORSDOF 5
ENDMDL
MODEL 2
REMARK VINA RESULT:      -6.8     14.959     17.628
REMARK  Name = 
REMARK  5 active torsions:
REMARK  status: ('A' for Active; 'I' for Inactive)
REMARK    1  A    between atoms: C_2  and  C_3
REMARK    2  A    between atoms: C_5  and  O_6
REMARK    3  A    between atoms: O_6  and  C_7
REMARK    4  A    between atoms: C_10  and  C_11
REMARK    5  A    between atoms: C_12  and  C_13
REMARK                            x       y       z     vdW  Elec       q    Type
REMARK                         _______ _______ _______ _____ _____    ______ ____
ROOT
ATOM      7  C   UNL     1       3.620  60.132   9.267  0.00  0.00    +0.000 A 
ATOM      8  C   UNL     1       3.668  61.343   9.935  0.00  0.00    +0.000 A 
ATOM      9  C   UNL     1       2.511  61.923  10.442  0.00  0.00    +0.000 A 
ATOM     10  C   UNL     1       1.285  61.336  10.162  0.00  0.00    +0.000 A 
ATOM     21  C   UNL     1       1.301  59.980   9.844  0.00  0.00    +0.000 A 
ATOM     22  C   UNL     1       2.383  59.535   9.089  0.00  0.00    +0.000 A 
ENDROOT
BRANCH  10  11
ATOM     11  C   UNL     1       0.078  61.653  10.950  0.00  0.00    +0.000 C 
ATOM     12  C   UNL     1       0.460  61.855  12.221  0.00  0.00    +0.000 C 
BRANCH  12  13
ATOM     13  C   UNL     1       0.623  60.550  12.863  0.00  0.00    +0.000 A 
ATOM     14  C   UNL     1       1.739  60.088  13.486  0.00  0.00    +0.000 A 
ATOM     15  C   UNL     1       1.662  58.811  14.019  0.00  0.00    +0.000 A 
ATOM     16  O   UNL     1       2.780  58.043  14.309  0.00  0.00    +0.000 OA
ATOM     17  C   UNL     1       0.450  58.163  14.238  0.00  0.00    +0.000 A 
ATOM     18  C   UNL     1      -0.705  58.708  13.750  0.00  0.00    +0.000 A 
ATOM     19  O   UNL     1      -1.954  58.315  14.225  0.00  0.00    +0.000 OA
ATOM     20  C   UNL     1      -0.563  59.824  12.938  0.00  0.00    +0.000 A 
ENDBRANCH  12  13
ENDBRANCH  10  11
BRANCH   7   6
ATOM      6  O   UNL     1       4.806  59.460   9.212  0.00  0.00    +0.000 OA
BRANCH   6   5
ATOM      3  C   UNL     1       5.932  57.933  10.037  0.00  0.00    +0.000 C 
ATOM      4  O   UNL     1       5.250  57.219   8.878  0.00  0.00    +0.000 OA
ATOM      5  C   UNL     1       4.697  58.401   8.050  0.00  0.00    +0.000 C 
ATOM     23  C   UNL     1       6.243  58.818   7.311  0.00  0.00    +0.000 C 
ATOM     24  O   UNL     1       6.767  59.687   8.417  0.00  0.00    +0.000 OA
ATOM     25  C   UNL     1       6.978  57.331   7.794  0.00  0.00    +0.000 C 
ATOM     26  O   UNL     1       8.284  57.741   7.163  0.00  0.00    +0.000 OA
ATOM     27  C   UNL     1       7.532  57.882   9.332  0.00  0.00    +0.000 C 
ATOM     28  O   UNL     1       7.850  56.459   9.698  0.00  0.00    +0.000 OA
BRANCH   3   2
ATOM      1  O   UNL     1       5.561  56.496  11.381  0.00  0.00    +0.000 OA
ATOM      2  C   UNL     1       6.044  56.504  10.878  0.00  0.00    +0.000 C 
ENDBRANCH   3   2
ENDBRANCH   6   5
ENDBRANCH   7   6
TORSDOF 5
ENDMDL
MODEL 3
REMARK VINA RESULT:      -6.6      5.574      8.842
REMARK  Name = 
REMARK  5 active torsions:
REMARK  status: ('A' for Active; 'I' for Inactive)
REMARK    1  A    between atoms: C_2  and  C_3
REMARK    2  A    between atoms: C_5  and  O_6
REMARK    3  A    between atoms: O_6  and  C_7
REMARK    4  A    between atoms: C_10  and  C_11
REMARK    5  A    between atoms: C_12  and  C_13
REMARK                            x       y       z     vdW  Elec       q    Type
REMARK                         _______ _______ _______ _____ _____    ______ ____
ROOT
ATOM      7  C   UNL     1      19.824  69.251  12.043  0.00  0.00    +0.000 A 
ATOM      8  C   UNL     1      21.144  68.847  12.153  0.00  0.00    +0.000 A 
ATOM      9  C   UNL     1      21.982  69.404  13.112  0.00  0.00    +0.000 A 
ATOM     10  C   UNL     1      21.518  70.465  13.878  0.00  0.00    +0.000 A 
ATOM     21  C   UNL     1      20.135  70.578  14.011  0.00  0.00    +0.000 A 
ATOM     22  C   UNL     1      19.377  70.250  12.891  0.00  0.00    +0.000 A 
ENDROOT
BRANCH  10  11
ATOM     11  C   UNL     1      22.178  70.855  15.138  0.00  0.00    +0.000 C 
ATOM     12  C   UNL     1      21.915  72.153  15.354  0.00  0.00    +0.000 C 
BRANCH  12  13
ATOM     13  C   UNL     1      22.838  72.948  14.543  0.00  0.00    +0.000 A 
ATOM     14  C   UNL     1      22.529  74.053  13.815  0.00  0.00    +0.000 A 
ATOM     15  C   UNL     1      23.573  74.640  13.117  0.00  0.00    +0.000 A 
ATOM     16  O   UNL     1      23.378  75.487  12.035  0.00  0.00    +0.000 OA
ATOM     17  C   UNL     1      24.909  74.370  13.399  0.00  0.00    +0.000 A 
ATOM     18  C   UNL     1      25.225  73.358  14.262  0.00  0.00    +0.000 A 
ATOM     19  O   UNL     1      26.484  73.268  14.849  0.00  0.00    +0.000 OA
ATOM     20  C   UNL     1      24.169  72.570  14.699  0.00  0.00    +0.000 A 
ENDBRANCH  12  13
ENDBRANCH  10  11
BRANCH   7   6
ATOM      6  O   UNL     1      19.004  68.364  11.410  0.00  0.00    +0.000 OA
BRANCH   6   5
ATOM      3  C   UNL     1      17.288  67.238  11.667  0.00  0.00    +0.000 C 
ATOM      4  O   UNL     1      16.732  68.504  11.030  0.00  0.00    +0.000 OA
ATOM      5  C   UNL     1      18.012  69.195  10.511  0.00  0.00    +0.000 C 
ATOM     23  C   UNL     1      18.186  68.166   9.089  0.00  0.00    +0.000 C 
ATOM     24  O   UNL     1      18.924  67.037   9.747  0.00  0.00    +0.000 OA
ATOM     25  C   UNL     1      16.584  67.537   9.237  0.00  0.00    +0.000 C 
ATOM     26  O   UNL     1      16.789  66.661   8.026  0.00  0.00    +0.000 OA
ATOM     27  C   UNL     1      16.991  66.220  10.275  0.00  0.00    +0.000 C 
ATOM     28  O   UNL     1      15.526  65.994  10.520  0.00  0.00    +0.000 OA
BRANCH   3   2
ATOM      1  O   UNL     1      15.688  67.497  12.842  0.00  0.00    +0.000 OA
ATOM      2  C   UNL     1      15.837  66.957  12.426  0.00  0.00    +0.000 C 
ENDBRANCH   3   2
ENDBRANCH   6   5
ENDBRANCH   7   6
TORSDOF 5
ENDMDL
MODEL 4
REMARK VINA RESULT:      -6.6     26.353     28.929
REMARK  Name = 
REMARK  5 active torsions:
REMARK  status: ('A' for Active; 'I' for Inactive)
REMARK    1  A    between atoms: C_2  and  C_3
REMARK    2  A    between atoms: C_5  and  O_6
REMARK    3  A    between atoms: O_6  and  C_7
REMARK    4  A    between atoms: C_10  and  C_11
REMARK    5  A    between atoms: C_12  and  C_13
REMARK                            x       y       z     vdW  Elec       q    Type
REMARK                         _______ _______ _______ _____ _____    ______ ____
ROOT
ATOM      7  C   UNL     1      31.150  60.128  -8.791  0.00  0.00    +0.000 A 
ATOM      8  C   UNL     1      32.012  59.047  -8.849  0.00  0.00    +0.000 A 
ATOM      9  C   UNL     1      33.185  59.111  -9.594  0.00  0.00    +0.000 A 
ATOM     10  C   UNL     1      33.421  60.227 -10.384  0.00  0.00    +0.000 A 
ATOM     21  C   UNL     1      32.765  61.400 -10.016  0.00  0.00    +0.000 A 
ATOM     22  C   UNL     1      31.471  61.258  -9.524  0.00  0.00    +0.000 A 
ENDROOT
BRANCH  10  11
ATOM     11  C   UNL     1      34.770  60.543 -10.892  0.00  0.00    +0.000 C 
ATOM     12  C   UNL     1      34.675  60.732 -12.218  0.00  0.00    +0.000 C 
BRANCH  12  13
ATOM     13  C   UNL     1      34.661  59.420 -12.866  0.00  0.00    +0.000 A 
ATOM     14  C   UNL     1      33.579  58.789 -13.393  0.00  0.00    +0.000 A 
ATOM     15  C   UNL     1      33.807  57.543 -13.954  0.00  0.00    +0.000 A 
ATOM     16  O   UNL     1      32.802  56.608 -14.156  0.00  0.00    +0.000 OA
ATOM     17  C   UNL     1      35.080  57.097 -14.296  0.00  0.00    +0.000 A 
ATOM     18  C   UNL     1      36.175  57.817 -13.906  0.00  0.00    +0.000 A 
ATOM     19  O   UNL     1      37.420  57.629 -14.500  0.00  0.00    +0.000 OA
ATOM     20  C   UNL     1      35.935  58.892 -13.063  0.00  0.00    +0.000 A 
ENDBRANCH  12  13
ENDBRANCH  10  11
BRANCH   7   6
ATOM      6  O   UNL     1      30.302  60.128  -7.722  0.00  0.00    +0.000 OA
BRANCH   6   5
ATOM      3  C   UNL     1      28.420  59.330  -7.406  0.00  0.00    +0.000 C 
ATOM      4  O   UNL     1      29.317  58.202  -6.917  0.00  0.00    +0.000 OA
ATOM      5  C   UNL     1      30.690  58.902  -6.811  0.00  0.00    +0.000 C 
ATOM     23  C   UNL     1      30.337  59.719  -5.288  0.00  0.00    +0.000 C 
ATOM     24  O   UNL     1      29.640  60.919  -5.860  0.00  0.00    +0.000 OA
ATOM     25  C   UNL     1      28.944  58.743  -4.983  0.00  0.00    +0.000 C 
ATOM     26  O   UNL     1      28.674  59.485  -3.698  0.00  0.00    +0.000 OA
ATOM     27  C   UNL     1      27.819  59.751  -5.817  0.00  0.00    +0.000 C 
ATOM     28  O   UNL     1      26.797  58.654  -5.709  0.00  0.00    +0.000 OA
BRANCH   3   2
ATOM      1  O   UNL     1      27.223  58.132  -8.474  0.00  0.00    +0.000 OA
ATOM      2  C   UNL     1      27.222  58.242  -7.785  0.00  0.00    +0.000 C 
ENDBRANCH   3   2
ENDBRANCH   6   5
ENDBRANCH   7   6
TORSDOF 5
ENDMDL
MODEL 5
REMARK VINA RESULT:      -6.5     22.092     24.767
REMARK  Name = 
REMARK  5 active torsions:
REMARK  status: ('A' for Active; 'I' for Inactive)
REMARK    1  A    between atoms: C_2  and  C_3
REMARK    2  A    between atoms: C_5  and  O_6
REMARK    3  A    between atoms: O_6  and  C_7
REMARK    4  A    between atoms: C_10  and  C_11
REMARK    5  A    between atoms: C_12  and  C_13
REMARK                            x       y       z     vdW  Elec       q    Type
REMARK                         _______ _______ _______ _____ _____    ______ ____
ROOT
ATOM      7  C   UNL     1      26.654  57.083  -5.561  0.00  0.00    +0.000 A 
ATOM      8  C   UNL     1      26.537  58.244  -6.306  0.00  0.00    +0.000 A 
ATOM      9  C   UNL     1      27.405  58.504  -7.360  0.00  0.00    +0.000 A 
ATOM     10  C   UNL     1      28.474  57.646  -7.580  0.00  0.00    +0.000 A 
ATOM     21  C   UNL     1      28.340  56.348  -7.092  0.00  0.00    +0.000 A 
ATOM     22  C   UNL     1      27.681  56.209  -5.874  0.00  0.00    +0.000 A 
ENDROOT
BRANCH  10  11
ATOM     11  C   UNL     1      29.199  57.628  -8.865  0.00  0.00    +0.000 C 
ATOM     12  C   UNL     1      30.513  57.586  -8.594  0.00  0.00    +0.000 C 
BRANCH  12  13
ATOM     13  C   UNL     1      30.959  58.944  -8.281  0.00  0.00    +0.000 A 
ATOM     14  C   UNL     1      31.696  59.326  -7.204  0.00  0.00    +0.000 A 
ATOM     15  C   UNL     1      31.996  60.676  -7.112  0.00  0.00    +0.000 A 
ATOM     16  O   UNL     1      32.362  61.290  -5.923  0.00  0.00    +0.000 OA
ATOM     17  C   UNL     1      31.884  61.543  -8.194  0.00  0.00    +0.000 A 
ATOM     18  C   UNL     1      31.284  61.113  -9.345  0.00  0.00    +0.000 A 
ATOM     19  O   UNL     1      31.453  61.789 -10.551  0.00  0.00    +0.000 OA
ATOM     20  C   UNL     1      30.699  59.856  -9.301  0.00  0.00    +0.000 A 
ENDBRANCH  12  13
ENDBRANCH  10  11
BRANCH   7   6
ATOM      6  O   UNL     1      25.528  56.724  -4.879  0.00  0.00    +0.000 OA
BRANCH   6   5
ATOM      3  C   UNL     1      23.708  57.355  -4.125  0.00  0.00    +0.000 C 
ATOM      4  O   UNL     1      23.301  56.796  -5.481  0.00  0.00    +0.000 OA
ATOM      5  C   UNL     1      24.564  56.011  -5.900  0.00  0.00    +0.000 C 
ATOM     23  C   UNL     1      24.238  54.619  -4.865  0.00  0.00    +0.000 C 
ATOM     24  O   UNL     1      24.852  55.158  -3.606  0.00  0.00    +0.000 OA
ATOM     25  C   UNL     1      22.605  55.103  -4.575  0.00  0.00    +0.000 C 
ATOM     26  O   UNL     1      22.383  53.908  -3.683  0.00  0.00    +0.000 OA
ATOM     27  C   UNL     1      22.940  56.086  -3.196  0.00  0.00    +0.000 C 
ATOM     28  O   UNL     1      21.538  56.624  -3.273  0.00  0.00    +0.000 OA
BRANCH   3   2
ATOM      1  O   UNL     1      22.623  59.020  -4.370  0.00  0.00    +0.000 OA
ATOM      2  C   UNL     1      22.412  58.396  -4.141  0.00  0.00    +0.000 C 
ENDBRANCH   3   2
ENDBRANCH   6   5
ENDBRANCH   7   6
TORSDOF 5
ENDMDL
MODEL 6
REMARK VINA RESULT:      -6.4     21.001     26.756
REMARK  Name = 
REMARK  5 active torsions:
REMARK  status: ('A' for Active; 'I' for Inactive)
REMARK    1  A    between atoms: C_2  and  C_3
REMARK    2  A    between atoms: C_5  and  O_6
REMARK    3  A    between atoms: O_6  and  C_7
REMARK    4  A    between atoms: C_10  and  C_11
REMARK    5  A    between atoms: C_12  and  C_13
REMARK                            x       y       z     vdW  Elec       q    Type
REMARK                         _______ _______ _______ _____ _____    ______ ____
ROOT
ATOM      7  C   UNL     1      24.819  40.866  20.936  0.00  0.00    +0.000 A 
ATOM      8  C   UNL     1      24.175  42.029  21.321  0.00  0.00    +0.000 A 
ATOM      9  C   UNL     1      23.719  42.938  20.372  0.00  0.00    +0.000 A 
ATOM     10  C   UNL     1      24.028  42.728  19.035  0.00  0.00    +0.000 A 
ATOM     21  C   UNL     1      24.317  41.417  18.661  0.00  0.00    +0.000 A 
ATOM     22  C   UNL     1      25.026  40.653  19.583  0.00  0.00    +0.000 A 
ENDROOT
BRANCH  10  11
ATOM     11  C   UNL     1      23.287  43.407  17.955  0.00  0.00    +0.000 C 
ATOM     12  C   UNL     1      24.025  43.324  16.836  0.00  0.00    +0.000 C 
BRANCH  12  13
ATOM     13  C   UNL     1      25.049  44.367  16.885  0.00  0.00    +0.000 A 
ATOM     14  C   UNL     1      26.390  44.192  16.745  0.00  0.00    +0.000 A 
ATOM     15  C   UNL     1      27.172  45.333  16.835  0.00  0.00    +0.000 A 
ATOM     16  O   UNL     1      28.528  45.300  17.123  0.00  0.00    +0.000 OA
ATOM     17  C   UNL     1      26.643  46.615  16.713  0.00  0.00    +0.000 A 
ATOM     18  C   UNL     1      25.286  46.786  16.691  0.00  0.00    +0.000 A 
ATOM     19  O   UNL     1      24.709  47.965  16.226  0.00  0.00    +0.000 OA
ATOM     20  C   UNL     1      24.520  45.655  16.931  0.00  0.00    +0.000 A 
ENDBRANCH  12  13
ENDBRANCH  10  11
BRANCH   7   6
ATOM      6  O   UNL     1      24.819  39.874  21.873  0.00  0.00    +0.000 OA
BRANCH   6   5
ATOM      3  C   UNL     1      23.899  38.078  22.325  0.00  0.00    +0.000 C 
ATOM      4  O   UNL     1      25.122  37.609  21.550  0.00  0.00    +0.000 OA
ATOM      5  C   UNL     1      25.992  38.886  21.515  0.00  0.00    +0.000 C 
ATOM     23  C   UNL     1      26.577  38.727  23.172  0.00  0.00    +0.000 C 
ATOM     24  O   UNL     1      25.422  39.395  23.857  0.00  0.00    +0.000 OA
ATOM     25  C   UNL     1      26.035  37.092  23.303  0.00  0.00    +0.000 C 
ATOM     26  O   UNL     1      26.535  37.013  24.723  0.00  0.00    +0.000 OA
ATOM     27  C   UNL     1      24.447  37.463  23.869  0.00  0.00    +0.000 C 
ATOM     28  O   UNL     1      24.061  36.028  23.644  0.00  0.00    +0.000 OA
BRANCH   3   2
ATOM      1  O   UNL     1      22.782  36.827  21.231  0.00  0.00    +0.000 OA
ATOM      2  C   UNL     1      23.059  36.720  21.861  0.00  0.00    +0.000 C 
ENDBRANCH   3   2
ENDBRANCH   6   5
ENDBRANCH   7   6
TORSDOF 5
ENDMDL
MODEL 7
REMARK VINA RESULT:      -6.4     35.176     37.849
REMARK  Name = 
REMARK  5 active torsions:
REMARK  status: ('A' for Active; 'I' for Inactive)
REMARK    1  A    between atoms: C_2  and  C_3
REMARK    2  A    between atoms: C_5  and  O_6
REMARK    3  A    between atoms: O_6  and  C_7
REMARK    4  A    between atoms: C_10  and  C_11
REMARK    5  A    between atoms: C_12  and  C_13
REMARK                            x       y       z     vdW  Elec       q    Type
REMARK                         _______ _______ _______ _____ _____    ______ ____
ROOT
ATOM      7  C   UNL     1      28.360  52.324 -17.883  0.00  0.00    +0.000 A 
ATOM      8  C   UNL     1      29.157  53.452 -17.977  0.00  0.00    +0.000 A 
ATOM      9  C   UNL     1      29.106  54.269 -19.101  0.00  0.00    +0.000 A 
ATOM     10  C   UNL     1      28.339  53.871 -20.188  0.00  0.00    +0.000 A 
ATOM     21  C   UNL     1      27.297  52.985 -19.924  0.00  0.00    +0.000 A 
ATOM     22  C   UNL     1      27.540  52.015 -18.956  0.00  0.00    +0.000 A 
ENDROOT
BRANCH  10  11
ATOM     11  C   UNL     1      27.933  54.826 -21.237  0.00  0.00    +0.000 C 
ATOM     12  C   UNL     1      27.928  54.170 -22.409  0.00  0.00    +0.000 C 
BRANCH  12  13
ATOM     13  C   UNL     1      29.304  54.105 -22.902  0.00  0.00    +0.000 A 
ATOM     14  C   UNL     1      30.134  53.030 -22.847  0.00  0.00    +0.000 A 
ATOM     15  C   UNL     1      31.403  53.205 -23.374  0.00  0.00    +0.000 A 
ATOM     16  O   UNL     1      32.478  52.392 -23.045  0.00  0.00    +0.000 OA
ATOM     17  C   UNL     1      31.722  54.260 -24.225  0.00  0.00    +0.000 A 
ATOM     18  C   UNL     1      30.821  55.271 -24.413  0.00  0.00    +0.000 A 
ATOM     19  O   UNL     1      30.923  56.146 -25.491  0.00  0.00    +0.000 OA
ATOM     20  C   UNL     1      29.684  55.237 -23.618  0.00  0.00    +0.000 A 
ENDBRANCH  12  13
ENDBRANCH  10  11
BRANCH   7   6
ATOM      6  O   UNL     1      28.159  51.868 -16.613  0.00  0.00    +0.000 OA
BRANCH   6   5
ATOM      3  C   UNL     1      26.741  51.923 -15.108  0.00  0.00    +0.000 C 
ATOM      4  O   UNL     1      26.370  50.637 -15.833  0.00  0.00    +0.000 OA
ATOM      5  C   UNL     1      27.611  50.395 -16.721  0.00  0.00    +0.000 C 
ATOM     23  C   UNL     1      28.617  49.756 -15.420  0.00  0.00    +0.000 C 
ATOM     24  O   UNL     1      29.112  51.069 -14.887  0.00  0.00    +0.000 OA
ATOM     25  C   UNL     1      27.271  49.547 -14.358  0.00  0.00    +0.000 C 
ATOM     26  O   UNL     1      28.176  49.025 -13.272  0.00  0.00    +0.000 OA
ATOM     27  C   UNL     1      27.327  51.126 -13.665  0.00  0.00    +0.000 C 
ATOM     28  O   UNL     1      25.985  50.870 -13.038  0.00  0.00    +0.000 OA
BRANCH   3   2
ATOM      1  O   UNL     1      24.809  52.448 -15.095  0.00  0.00    +0.000 OA
ATOM      2  C   UNL     1      25.170  52.116 -14.600  0.00  0.00    +0.000 C 
ENDBRANCH   3   2
ENDBRANCH   6   5
ENDBRANCH   7   6
TORSDOF 5
ENDMDL
MODEL 8
REMARK VINA RESULT:      -6.4      5.106     11.559
REMARK  Name = 
REMARK  5 active torsions:
REMARK  status: ('A' for Active; 'I' for Inactive)
REMARK    1  A    between atoms: C_2  and  C_3
REMARK    2  A    between atoms: C_5  and  O_6
REMARK    3  A    between atoms: O_6  and  C_7
REMARK    4  A    between atoms: C_10  and  C_11
REMARK    5  A    between atoms: C_12  and  C_13
REMARK                            x       y       z     vdW  Elec       q    Type
REMARK                         _______ _______ _______ _____ _____    ______ ____
ROOT
ATOM      7  C   UNL     1      17.871  70.315   9.541  0.00  0.00    +0.000 A 
ATOM      8  C   UNL     1      18.275  69.533   8.473  0.00  0.00    +0.000 A 
ATOM      9  C   UNL     1      18.378  70.072   7.195  0.00  0.00    +0.000 A 
ATOM     10  C   UNL     1      17.948  71.373   6.976  0.00  0.00    +0.000 A 
ATOM     21  C   UNL     1      17.920  72.215   8.086  0.00  0.00    +0.000 A 
ATOM     22  C   UNL     1      17.538  71.636   9.292  0.00  0.00    +0.000 A 
ENDROOT
BRANCH  10  11
ATOM     11  C   UNL     1      18.360  72.132   5.780  0.00  0.00    +0.000 C 
ATOM     12  C   UNL     1      17.417  73.056   5.535  0.00  0.00    +0.000 C 
BRANCH  12  13
ATOM     13  C   UNL     1      16.312  72.407   4.829  0.00  0.00    +0.000 A 
ATOM     14  C   UNL     1      16.069  71.071   4.763  0.00  0.00    +0.000 A 
ATOM     15  C   UNL     1      14.960  70.684   4.027  0.00  0.00    +0.000 A 
ATOM     16  O   UNL     1      14.797  69.403   3.519  0.00  0.00    +0.000 OA
ATOM     17  C   UNL     1      13.948  71.573   3.673  0.00  0.00    +0.000 A 
ATOM     18  C   UNL     1      14.121  72.912   3.887  0.00  0.00    +0.000 A 
ATOM     19  O   UNL     1      13.044  73.794   3.890  0.00  0.00    +0.000 OA
ATOM     20  C   UNL     1      15.376  73.307   4.328  0.00  0.00    +0.000 A 
ENDBRANCH  12  13
ENDBRANCH  10  11
BRANCH   7   6
ATOM      6  O   UNL     1      18.225  69.836  10.768  0.00  0.00    +0.000 OA
BRANCH   6   5
ATOM      3  C   UNL     1      17.447  68.678  12.296  0.00  0.00    +0.000 C 
ATOM      4  O   UNL     1      18.183  67.636  11.466  0.00  0.00    +0.000 OA
ATOM      5  C   UNL     1      19.053  68.515  10.539  0.00  0.00    +0.000 C 
ATOM     23  C   UNL     1      20.273  68.879  11.761  0.00  0.00    +0.000 C 
ATOM     24  O   UNL     1      19.575  70.044  12.401  0.00  0.00    +0.000 OA
ATOM     25  C   UNL     1      19.712  67.637  12.822  0.00  0.00    +0.000 C 
ATOM     26  O   UNL     1      20.761  68.000  13.842  0.00  0.00    +0.000 OA
ATOM     27  C   UNL     1      18.550  68.606  13.653  0.00  0.00    +0.000 C 
ATOM     28  O   UNL     1      17.994  67.357  14.277  0.00  0.00    +0.000 OA
BRANCH   3   2
ATOM      1  O   UNL     1      15.805  67.544  12.461  0.00  0.00    +0.000 OA
ATOM      2  C   UNL     1      16.387  67.522  12.846  0.00  0.00    +0.000 C 
ENDBRANCH   3   2
ENDBRANCH   6   5
ENDBRANCH   7   6
TORSDOF 5
ENDMDL
MODEL 9
REMARK VINA RESULT:      -6.4     38.231     40.836
REMARK  Name = 
REMARK  5 active torsions:
REMARK  status: ('A' for Active; 'I' for Inactive)
REMARK    1  A    between atoms: C_2  and  C_3
REMARK    2  A    between atoms: C_5  and  O_6
REMARK    3  A    between atoms: O_6  and  C_7
REMARK    4  A    between atoms: C_10  and  C_11
REMARK    5  A    between atoms: C_12  and  C_13
REMARK                            x       y       z     vdW  Elec       q    Type
REMARK                         _______ _______ _______ _____ _____    ______ ____
ROOT
ATOM      7  C   UNL     1       6.896  40.389 -16.513  0.00  0.00    +0.000 A 
ATOM      8  C   UNL     1       7.284  41.298 -17.482  0.00  0.00    +0.000 A 
ATOM      9  C   UNL     1       8.020  42.429 -17.144  0.00  0.00    +0.000 A 
ATOM     10  C   UNL     1       8.254  42.704 -15.803  0.00  0.00    +0.000 A 
ATOM     21  C   UNL     1       8.197  41.622 -14.927  0.00  0.00    +0.000 A 
ATOM     22  C   UNL     1       7.231  40.657 -15.197  0.00  0.00    +0.000 A 
ENDROOT
BRANCH  10  11
ATOM     11  C   UNL     1       9.314  43.639 -15.380  0.00  0.00    +0.000 C 
ATOM     12  C   UNL     1       9.231  43.777 -14.047  0.00  0.00    +0.000 C 
BRANCH  12  13
ATOM     13  C   UNL     1       8.168  44.738 -13.753  0.00  0.00    +0.000 A 
ATOM     14  C   UNL     1       6.981  44.472 -13.147  0.00  0.00    +0.000 A 
ATOM     15  C   UNL     1       6.122  45.546 -12.977  0.00  0.00    +0.000 A 
ATOM     16  O   UNL     1       4.758  45.400 -12.769  0.00  0.00    +0.000 OA
ATOM     17  C   UNL     1       6.548  46.868 -13.075  0.00  0.00    +0.000 A 
ATOM     18  C   UNL     1       7.807  47.139 -13.535  0.00  0.00    +0.000 A 
ATOM     19  O   UNL     1       8.407  48.379 -13.326  0.00  0.00    +0.000 OA
ATOM     20  C   UNL     1       8.536  46.057 -14.007  0.00  0.00    +0.000 A 
ENDBRANCH  12  13
ENDBRANCH  10  11
BRANCH   7   6
ATOM      6  O   UNL     1       6.590  39.146 -16.984  0.00  0.00    +0.000 OA
BRANCH   6   5
ATOM      3  C   UNL     1       7.403  37.358 -17.636  0.00  0.00    +0.000 C 
ATOM      4  O   UNL     1       7.170  37.069 -16.160  0.00  0.00    +0.000 OA
ATOM      5  C   UNL     1       6.252  38.239 -15.741  0.00  0.00    +0.000 C 
ATOM     23  C   UNL     1       4.786  37.551 -16.442  0.00  0.00    +0.000 C 
ATOM     24  O   UNL     1       4.978  38.052 -17.843  0.00  0.00    +0.000 OA
ATOM     25  C   UNL     1       5.502  35.990 -16.634  0.00  0.00    +0.000 C 
ATOM     26  O   UNL     1       4.232  35.454 -17.245  0.00  0.00    +0.000 OA
ATOM     27  C   UNL     1       6.155  36.272 -18.206  0.00  0.00    +0.000 C 
ATOM     28  O   UNL     1       6.944  35.000 -18.078  0.00  0.00    +0.000 OA
BRANCH   3   2
ATOM      1  O   UNL     1       9.240  36.576 -17.480  0.00  0.00    +0.000 OA
ATOM      2  C   UNL     1       8.650  36.260 -17.676  0.00  0.00    +0.000 C 
ENDBRANCH   3   2
ENDBRANCH   6   5
ENDBRANCH   7   6
TORSDOF 5
ENDMDL
MODEL 10
REMARK VINA RESULT:      -6.4     34.678     37.093
REMARK  Name = 
REMARK  5 active torsions:
REMARK  status: ('A' for Active; 'I' for Inactive)
REMARK    1  A    between atoms: C_2  and  C_3
REMARK    2  A    between atoms: C_5  and  O_6
REMARK    3  A    between atoms: O_6  and  C_7
REMARK    4  A    between atoms: C_10  and  C_11
REMARK    5  A    between atoms: C_12  and  C_13
REMARK                            x       y       z     vdW  Elec       q    Type
REMARK                         _______ _______ _______ _____ _____    ______ ____
ROOT
ATOM      7  C   UNL     1       7.178  46.689 -13.258  0.00  0.00    +0.000 A 
ATOM      8  C   UNL     1       7.964  46.828 -14.390  0.00  0.00    +0.000 A 
ATOM      9  C   UNL     1       8.848  45.824 -14.770  0.00  0.00    +0.000 A 
ATOM     10  C   UNL     1       9.028  44.732 -13.931  0.00  0.00    +0.000 A 
ATOM     21  C   UNL     1       7.989  44.447 -13.048  0.00  0.00    +0.000 A 
ATOM     22  C   UNL     1       7.326  45.540 -12.500  0.00  0.00    +0.000 A 
ENDROOT
BRANCH  10  11
ATOM     11  C   UNL     1       9.635  43.478 -14.417  0.00  0.00    +0.000 C 
ATOM     12  C   UNL     1       9.210  43.276 -15.674  0.00  0.00    +0.000 C 
BRANCH  12  13
ATOM     13  C   UNL     1       7.871  42.688 -15.615  0.00  0.00    +0.000 A 
ATOM     14  C   UNL     1       6.761  43.140 -16.255  0.00  0.00    +0.000 A 
ATOM     15  C   UNL     1       5.594  42.421 -16.044  0.00  0.00    +0.000 A 
ATOM     16  O   UNL     1       4.330  42.948 -16.265  0.00  0.00    +0.000 OA
ATOM     17  C   UNL     1       5.594  41.131 -15.523  0.00  0.00    +0.000 A 
ATOM     18  C   UNL     1       6.753  40.605 -15.022  0.00  0.00    +0.000 A 
ATOM     19  O   UNL     1       6.903  39.235 -14.820  0.00  0.00    +0.000 OA
ATOM     20  C   UNL     1       7.837  41.467 -14.947  0.00  0.00    +0.000 A 
ENDBRANCH  12  13
ENDBRANCH  10  11
BRANCH   7   6
ATOM      6  O   UNL     1       6.072  47.486 -13.228  0.00  0.00    +0.000 OA
BRANCH   6   5
ATOM      3  C   UNL     1       5.089  49.303 -13.341  0.00  0.00    +0.000 C 
ATOM      4  O   UNL     1       4.898  48.763 -14.751  0.00  0.00    +0.000 OA
ATOM      5  C   UNL     1       5.304  47.281 -14.588  0.00  0.00    +0.000 C 
ATOM     23  C   UNL     1       3.787  46.780 -13.840  0.00  0.00    +0.000 C 
ATOM     24  O   UNL     1       4.129  47.148 -12.426  0.00  0.00    +0.000 OA
ATOM     25  C   UNL     1       2.978  48.239 -14.289  0.00  0.00    +0.000 C 
ATOM     26  O   UNL     1       1.711  47.773 -13.619  0.00  0.00    +0.000 OA
ATOM     27  C   UNL     1       3.409  49.138 -12.880  0.00  0.00    +0.000 C 
ATOM     28  O   UNL     1       2.909  50.384 -13.555  0.00  0.00    +0.000 OA
BRANCH   3   2
ATOM      1  O   UNL     1       5.595  51.047 -14.185  0.00  0.00    +0.000 OA
ATOM      2  C   UNL     1       4.984  50.864 -13.901  0.00  0.00    +0.000 C 
ENDBRANCH   3   2
ENDBRANCH   6   5
ENDBRANCH   7   6
TORSDOF 5
ENDMDL
