MODEL 1
REMARK VINA RESULT:      -7.5      0.000      0.000
REMARK  Name = 
REMARK  1 active torsions:
REMARK  status: ('A' for Active; 'I' for Inactive)
REMARK    1  A    between atoms: C_5  and  C_6
REMARK                            x       y       z     vdW  Elec       q    Type
REMARK                         _______ _______ _______ _____ _____    ______ ____
ROOT
ATOM      1  C   UNL     1      23.825  35.085  20.018  0.00  0.00    +0.000 C 
ATOM      2  C   UNL     1      24.774  36.081  20.879  0.00  0.00    +0.000 C 
ATOM      3  C   UNL     1      23.641  36.332  22.011  0.00  0.00    +0.000 C 
ATOM      4  C   UNL     1      23.568  37.816  22.242  0.00  0.00    +0.000 C 
ATOM      5  C   UNL     1      24.883  38.432  22.146  0.00  0.00    +0.000 C 
ATOM      9  C   UNL     1      24.959  39.816  22.680  0.00  0.00    +0.000 C 
ATOM     10  C   UNL     1      26.108  40.519  21.956  0.00  0.00    +0.000 C 
ATOM     11  C   UNL     1      25.356  40.973  20.745  0.00  0.00    +0.000 C 
ATOM     12  C   UNL     1      24.201  41.836  21.246  0.00  0.00    +0.000 C 
ATOM     13  C   UNL     1      24.796  39.727  20.122  0.00  0.00    +0.000 C 
ATOM     14  C   UNL     1      24.576  39.756  18.799  0.00  0.00    +0.000 C 
ATOM     15  C   UNL     1      24.987  40.873  17.896  0.00  0.00    +0.000 C 
ATOM     16  C   UNL     1      24.915  42.183  18.869  0.00  0.00    +0.000 C 
ATOM     17  C   UNL     1      25.673  43.195  17.830  0.00  0.00    +0.000 C 
ATOM     18  C   UNL     1      26.882  42.665  17.349  0.00  0.00    +0.000 C 
ATOM     19  C   UNL     1      24.569  43.611  16.939  0.00  0.00    +0.000 C 
ATOM     20  C   UNL     1      24.649  44.960  16.334  0.00  0.00    +0.000 C 
ATOM     21  C   UNL     1      24.767  46.054  17.564  0.00  0.00    +0.000 C 
ATOM     22  O   UNL     1      25.314  47.122  16.629  0.00  0.00    +0.000 OA
ATOM     23  C   UNL     1      26.286  45.565  17.971  0.00  0.00    +0.000 C 
ATOM     24  C   UNL     1      26.858  46.640  18.840  0.00  0.00    +0.000 C 
ATOM     25  C   UNL     1      27.051  45.204  16.854  0.00  0.00    +0.000 C 
ATOM     26  C   UNL     1      25.789  44.372  18.949  0.00  0.00    +0.000 C 
ATOM     27  C   UNL     1      27.303  43.949  19.403  0.00  0.00    +0.000 C 
ATOM     28  C   UNL     1      26.826  42.897  20.405  0.00  0.00    +0.000 C 
ATOM     29  C   UNL     1      26.214  41.744  19.745  0.00  0.00    +0.000 C 
ATOM     30  C   UNL     1      27.063  40.752  19.116  0.00  0.00    +0.000 C 
ATOM     31  C   UNL     1      25.503  38.383  20.650  0.00  0.00    +0.000 C 
ATOM     32  C   UNL     1      24.282  37.420  19.988  0.00  0.00    +0.000 C 
ATOM     33  C   UNL     1      25.189  37.014  18.730  0.00  0.00    +0.000 C 
ENDROOT
BRANCH   5   6
ATOM      6  C   UNL     1      25.839  37.656  23.009  0.00  0.00    +0.000 C 
ATOM      7  O   UNL     1      27.047  37.505  22.644  0.00  0.00    +0.000 OA
ATOM      8  O   UNL     1      25.715  37.837  24.394  0.00  0.00    +0.000 OA
ENDBRANCH   5   6
TORSDOF 1
ENDMDL
MODEL 2
REMARK VINA RESULT:      -7.4     37.557     40.783
REMARK  Name = 
REMARK  1 active torsions:
REMARK  status: ('A' for Active; 'I' for Inactive)
REMARK    1  A    between atoms: C_5  and  C_6
REMARK                            x       y       z     vdW  Elec       q    Type
REMARK                         _______ _______ _______ _____ _____    ______ ____
ROOT
ATOM      1  C   UNL     1       6.590  38.884 -21.502  0.00  0.00    +0.000 C 
ATOM      2  C   UNL     1       7.179  38.678 -20.004  0.00  0.00    +0.000 C 
ATOM      3  C   UNL     1       5.868  37.868 -19.500  0.00  0.00    +0.000 C 
ATOM      4  C   UNL     1       5.459  38.467 -18.183  0.00  0.00    +0.000 C 
ATOM      5  C   UNL     1       6.617  38.862 -17.398  0.00  0.00    +0.000 C 
ATOM      9  C   UNL     1       6.329  39.150 -15.969  0.00  0.00    +0.000 C 
ATOM     10  C   UNL     1       7.399  40.124 -15.478  0.00  0.00    +0.000 C 
ATOM     11  C   UNL     1       6.752  41.399 -15.917  0.00  0.00    +0.000 C 
ATOM     12  C   UNL     1       5.384  41.450 -15.243  0.00  0.00    +0.000 C 
ATOM     13  C   UNL     1       6.556  41.266 -17.401  0.00  0.00    +0.000 C 
ATOM     14  C   UNL     1       6.527  42.402 -18.113  0.00  0.00    +0.000 C 
ATOM     15  C   UNL     1       6.824  43.758 -17.559  0.00  0.00    +0.000 C 
ATOM     16  C   UNL     1       6.344  43.636 -16.003  0.00  0.00    +0.000 C 
ATOM     17  C   UNL     1       7.017  45.047 -15.518  0.00  0.00    +0.000 C 
ATOM     18  C   UNL     1       8.366  45.157 -15.897  0.00  0.00    +0.000 C 
ATOM     19  C   UNL     1       5.991  46.035 -15.913  0.00  0.00    +0.000 C 
ATOM     20  C   UNL     1       5.876  47.266 -15.099  0.00  0.00    +0.000 C 
ATOM     21  C   UNL     1       5.588  46.810 -13.539  0.00  0.00    +0.000 C 
ATOM     22  O   UNL     1       6.031  48.165 -13.008  0.00  0.00    +0.000 OA
ATOM     23  C   UNL     1       7.101  46.187 -13.349  0.00  0.00    +0.000 C 
ATOM     24  C   UNL     1       7.309  46.021 -11.877  0.00  0.00    +0.000 C 
ATOM     25  C   UNL     1       8.076  46.930 -14.028  0.00  0.00    +0.000 C 
ATOM     26  C   UNL     1       6.726  44.729 -13.948  0.00  0.00    +0.000 C 
ATOM     27  C   UNL     1       8.214  44.102 -13.681  0.00  0.00    +0.000 C 
ATOM     28  C   UNL     1       7.826  42.698 -14.147  0.00  0.00    +0.000 C 
ATOM     29  C   UNL     1       7.566  42.647 -15.585  0.00  0.00    +0.000 C 
ATOM     30  C   UNL     1       8.683  42.639 -16.509  0.00  0.00    +0.000 C 
ATOM     31  C   UNL     1       7.442  40.094 -18.052  0.00  0.00    +0.000 C 
ATOM     32  C   UNL     1       6.555  40.152 -19.489  0.00  0.00    +0.000 C 
ATOM     33  C   UNL     1       7.696  40.989 -20.243  0.00  0.00    +0.000 C 
ENDROOT
BRANCH   5   6
ATOM      6  C   UNL     1       7.580  37.708 -17.349  0.00  0.00    +0.000 C 
ATOM      7  O   UNL     1       8.826  37.911 -17.496  0.00  0.00    +0.000 OA
ATOM      8  O   UNL     1       7.306  36.709 -16.404  0.00  0.00    +0.000 OA
ENDBRANCH   5   6
TORSDOF 1
ENDMDL
MODEL 3
REMARK VINA RESULT:      -7.3     47.413     49.438
REMARK  Name = 
REMARK  1 active torsions:
REMARK  status: ('A' for Active; 'I' for Inactive)
REMARK    1  A    between atoms: C_5  and  C_6
REMARK                            x       y       z     vdW  Elec       q    Type
REMARK                         _______ _______ _______ _____ _____    ______ ____
ROOT
ATOM      1  C   UNL     1      24.950  79.792  -7.149  0.00  0.00    +0.000 C 
ATOM      2  C   UNL     1      25.701  80.679  -8.282  0.00  0.00    +0.000 C 
ATOM      3  C   UNL     1      24.932  79.939  -9.503  0.00  0.00    +0.000 C 
ATOM      4  C   UNL     1      25.975  79.569 -10.521  0.00  0.00    +0.000 C 
ATOM      5  C   UNL     1      27.014  80.583 -10.608  0.00  0.00    +0.000 C 
ATOM      9  C   UNL     1      27.892  80.471 -11.801  0.00  0.00    +0.000 C 
ATOM     10  C   UNL     1      29.232  81.112 -11.440  0.00  0.00    +0.000 C 
ATOM     11  C   UNL     1      29.874  79.926 -10.793  0.00  0.00    +0.000 C 
ATOM     12  C   UNL     1      29.880  78.810 -11.835  0.00  0.00    +0.000 C 
ATOM     13  C   UNL     1      28.962  79.532  -9.667  0.00  0.00    +0.000 C 
ATOM     14  C   UNL     1      29.523  78.904  -8.623  0.00  0.00    +0.000 C 
ATOM     15  C   UNL     1      30.993  78.709  -8.441  0.00  0.00    +0.000 C 
ATOM     16  C   UNL     1      31.548  78.619  -9.975  0.00  0.00    +0.000 C 
ATOM     17  C   UNL     1      33.132  78.725  -9.577  0.00  0.00    +0.000 C 
ATOM     18  C   UNL     1      33.402  79.811  -8.728  0.00  0.00    +0.000 C 
ATOM     19  C   UNL     1      33.458  77.328  -9.219  0.00  0.00    +0.000 C 
ATOM     20  C   UNL     1      34.844  76.867  -9.455  0.00  0.00    +0.000 C 
ATOM     21  C   UNL     1      35.180  77.086 -11.055  0.00  0.00    +0.000 C 
ATOM     22  O   UNL     1      36.679  77.019 -10.802  0.00  0.00    +0.000 OA
ATOM     23  C   UNL     1      35.184  78.728 -10.919  0.00  0.00    +0.000 C 
ATOM     24  C   UNL     1      35.849  79.254 -12.151  0.00  0.00    +0.000 C 
ATOM     25  C   UNL     1      35.717  79.164  -9.699  0.00  0.00    +0.000 C 
ATOM     26  C   UNL     1      33.585  78.887 -11.133  0.00  0.00    +0.000 C 
ATOM     27  C   UNL     1      33.618  80.523 -11.072  0.00  0.00    +0.000 C 
ATOM     28  C   UNL     1      32.127  80.672 -11.379  0.00  0.00    +0.000 C 
ATOM     29  C   UNL     1      31.286  80.196 -10.281  0.00  0.00    +0.000 C 
ATOM     30  C   UNL     1      31.121  81.023  -9.103  0.00  0.00    +0.000 C 
ATOM     31  C   UNL     1      27.918  80.687  -9.267  0.00  0.00    +0.000 C 
ATOM     32  C   UNL     1      26.995  79.606  -8.352  0.00  0.00    +0.000 C 
ATOM     33  C   UNL     1      27.613  80.138  -6.971  0.00  0.00    +0.000 C 
ENDROOT
BRANCH   5   6
ATOM      6  C   UNL     1      26.360  81.928 -10.763  0.00  0.00    +0.000 C 
ATOM      7  O   UNL     1      26.891  82.959 -10.242  0.00  0.00    +0.000 OA
ATOM      8  O   UNL     1      25.777  82.196 -12.010  0.00  0.00    +0.000 OA
ENDBRANCH   5   6
TORSDOF 1
ENDMDL
MODEL 4
REMARK VINA RESULT:      -7.3      1.789      3.436
REMARK  Name = 
REMARK  1 active torsions:
REMARK  status: ('A' for Active; 'I' for Inactive)
REMARK    1  A    between atoms: C_5  and  C_6
REMARK                            x       y       z     vdW  Elec       q    Type
REMARK                         _______ _______ _______ _____ _____    ______ ____
ROOT
ATOM      1  C   UNL     1      25.776  37.389  23.540  0.00  0.00    +0.000 C 
ATOM      2  C   UNL     1      25.415  37.376  21.958  0.00  0.00    +0.000 C 
ATOM      3  C   UNL     1      26.851  36.747  21.542  0.00  0.00    +0.000 C 
ATOM      4  C   UNL     1      27.377  37.569  20.398  0.00  0.00    +0.000 C 
ATOM      5  C   UNL     1      26.303  37.998  19.515  0.00  0.00    +0.000 C 
ATOM      9  C   UNL     1      26.754  38.522  18.200  0.00  0.00    +0.000 C 
ATOM     10  C   UNL     1      25.675  39.482  17.700  0.00  0.00    +0.000 C 
ATOM     11  C   UNL     1      26.137  40.717  18.408  0.00  0.00    +0.000 C 
ATOM     12  C   UNL     1      27.573  40.967  17.955  0.00  0.00    +0.000 C 
ATOM     13  C   UNL     1      26.142  40.371  19.869  0.00  0.00    +0.000 C 
ATOM     14  C   UNL     1      25.971  41.383  20.732  0.00  0.00    +0.000 C 
ATOM     15  C   UNL     1      25.628  42.783  20.340  0.00  0.00    +0.000 C 
ATOM     16  C   UNL     1      26.323  42.937  18.870  0.00  0.00    +0.000 C 
ATOM     17  C   UNL     1      25.594  44.354  18.497  0.00  0.00    +0.000 C 
ATOM     18  C   UNL     1      24.202  44.309  18.685  0.00  0.00    +0.000 C 
ATOM     19  C   UNL     1      26.463  45.340  19.175  0.00  0.00    +0.000 C 
ATOM     20  C   UNL     1      26.572  46.686  18.570  0.00  0.00    +0.000 C 
ATOM     21  C   UNL     1      27.108  46.498  17.021  0.00  0.00    +0.000 C 
ATOM     22  O   UNL     1      26.618  47.883  16.629  0.00  0.00    +0.000 OA
ATOM     23  C   UNL     1      25.698  45.806  16.524  0.00  0.00    +0.000 C 
ATOM     24  C   UNL     1      25.707  45.854  15.029  0.00  0.00    +0.000 C 
ATOM     25  C   UNL     1      24.577  46.364  17.151  0.00  0.00    +0.000 C 
ATOM     26  C   UNL     1      26.122  44.303  16.957  0.00  0.00    +0.000 C 
ATOM     27  C   UNL     1      24.747  43.621  16.388  0.00  0.00    +0.000 C 
ATOM     28  C   UNL     1      25.196  42.193  16.702  0.00  0.00    +0.000 C 
ATOM     29  C   UNL     1      25.264  41.940  18.141  0.00  0.00    +0.000 C 
ATOM     30  C   UNL     1      24.038  41.711  18.880  0.00  0.00    +0.000 C 
ATOM     31  C   UNL     1      25.288  39.052  20.210  0.00  0.00    +0.000 C 
ATOM     32  C   UNL     1      25.965  38.951  21.755  0.00  0.00    +0.000 C 
ATOM     33  C   UNL     1      24.660  39.579  22.444  0.00  0.00    +0.000 C 
ENDROOT
BRANCH   5   6
ATOM      6  C   UNL     1      25.466  36.800  19.162  0.00  0.00    +0.000 C 
ATOM      7  O   UNL     1      24.201  36.901  19.106  0.00  0.00    +0.000 OA
ATOM      8  O   UNL     1      25.982  35.951  18.171  0.00  0.00    +0.000 OA
ENDBRANCH   5   6
TORSDOF 1
ENDMDL
MODEL 5
REMARK VINA RESULT:      -7.2     27.971     32.958
REMARK  Name = 
REMARK  1 active torsions:
REMARK  status: ('A' for Active; 'I' for Inactive)
REMARK    1  A    between atoms: C_5  and  C_6
REMARK                            x       y       z     vdW  Elec       q    Type
REMARK                         _______ _______ _______ _____ _____    ______ ____
ROOT
ATOM      1  C   UNL     1      34.866  58.353  -9.826  0.00  0.00    +0.000 C 
ATOM      2  C   UNL     1      33.536  59.281  -9.768  0.00  0.00    +0.000 C 
ATOM      3  C   UNL     1      34.121  60.203  -8.568  0.00  0.00    +0.000 C 
ATOM      4  C   UNL     1      33.036  60.317  -7.532  0.00  0.00    +0.000 C 
ATOM      5  C   UNL     1      31.720  60.387  -8.148  0.00  0.00    +0.000 C 
ATOM      9  C   UNL     1      30.633  60.830  -7.239  0.00  0.00    +0.000 C 
ATOM     10  C   UNL     1      29.326  60.249  -7.777  0.00  0.00    +0.000 C 
ATOM     11  C   UNL     1      29.397  58.907  -7.119  0.00  0.00    +0.000 C 
ATOM     12  C   UNL     1      29.494  59.161  -5.618  0.00  0.00    +0.000 C 
ATOM     13  C   UNL     1      30.683  58.290  -7.591  0.00  0.00    +0.000 C 
ATOM     14  C   UNL     1      30.737  56.950  -7.623  0.00  0.00    +0.000 C 
ATOM     15  C   UNL     1      29.573  56.048  -7.371  0.00  0.00    +0.000 C 
ATOM     16  C   UNL     1      28.658  56.907  -6.324  0.00  0.00    +0.000 C 
ATOM     17  C   UNL     1      27.347  55.932  -6.423  0.00  0.00    +0.000 C 
ATOM     18  C   UNL     1      26.961  55.683  -7.751  0.00  0.00    +0.000 C 
ATOM     19  C   UNL     1      27.688  54.853  -5.471  0.00  0.00    +0.000 C 
ATOM     20  C   UNL     1      26.571  54.178  -4.774  0.00  0.00    +0.000 C 
ATOM     21  C   UNL     1      25.713  55.333  -3.966  0.00  0.00    +0.000 C 
ATOM     22  O   UNL     1      24.498  54.425  -3.853  0.00  0.00    +0.000 OA
ATOM     23  C   UNL     1      25.141  56.005  -5.356  0.00  0.00    +0.000 C 
ATOM     24  C   UNL     1      23.991  56.878  -4.963  0.00  0.00    +0.000 C 
ATOM     25  C   UNL     1      24.877  55.049  -6.345  0.00  0.00    +0.000 C 
ATOM     26  C   UNL     1      26.422  56.973  -5.579  0.00  0.00    +0.000 C 
ATOM     27  C   UNL     1      25.803  57.686  -6.917  0.00  0.00    +0.000 C 
ATOM     28  C   UNL     1      26.964  58.670  -7.062  0.00  0.00    +0.000 C 
ATOM     29  C   UNL     1      28.210  58.003  -7.440  0.00  0.00    +0.000 C 
ATOM     30  C   UNL     1      28.401  57.583  -8.814  0.00  0.00    +0.000 C 
ATOM     31  C   UNL     1      31.290  59.013  -8.892  0.00  0.00    +0.000 C 
ATOM     32  C   UNL     1      32.778  58.236  -8.691  0.00  0.00    +0.000 C 
ATOM     33  C   UNL     1      32.452  57.165  -9.840  0.00  0.00    +0.000 C 
ENDROOT
BRANCH   5   6
ATOM      6  C   UNL     1      31.748  61.439  -9.222  0.00  0.00    +0.000 C 
ATOM      7  O   UNL     1      31.086  61.273 -10.294  0.00  0.00    +0.000 OA
ATOM      8  O   UNL     1      31.740  62.772  -8.787  0.00  0.00    +0.000 OA
ENDBRANCH   5   6
TORSDOF 1
ENDMDL
MODEL 6
REMARK VINA RESULT:      -7.2     27.232     29.588
REMARK  Name = 
REMARK  1 active torsions:
REMARK  status: ('A' for Active; 'I' for Inactive)
REMARK    1  A    between atoms: C_5  and  C_6
REMARK                            x       y       z     vdW  Elec       q    Type
REMARK                         _______ _______ _______ _____ _____    ______ ____
ROOT
ATOM      1  C   UNL     1      18.618  64.694   6.913  0.00  0.00    +0.000 C 
ATOM      2  C   UNL     1      17.753  65.271   8.159  0.00  0.00    +0.000 C 
ATOM      3  C   UNL     1      17.080  66.446   7.268  0.00  0.00    +0.000 C 
ATOM      4  C   UNL     1      17.204  67.722   8.054  0.00  0.00    +0.000 C 
ATOM      5  C   UNL     1      17.044  67.484   9.480  0.00  0.00    +0.000 C 
ATOM      9  C   UNL     1      16.821  68.707  10.292  0.00  0.00    +0.000 C 
ATOM     10  C   UNL     1      17.313  68.408  11.708  0.00  0.00    +0.000 C 
ATOM     11  C   UNL     1      18.758  68.741  11.511  0.00  0.00    +0.000 C 
ATOM     12  C   UNL     1      18.812  70.190  11.034  0.00  0.00    +0.000 C 
ATOM     13  C   UNL     1      19.235  67.847  10.402  0.00  0.00    +0.000 C 
ATOM     14  C   UNL     1      20.538  67.533  10.395  0.00  0.00    +0.000 C 
ATOM     15  C   UNL     1      21.501  67.880  11.483  0.00  0.00    +0.000 C 
ATOM     16  C   UNL     1      20.895  69.275  12.082  0.00  0.00    +0.000 C 
ATOM     17  C   UNL     1      21.861  69.313  13.403  0.00  0.00    +0.000 C 
ATOM     18  C   UNL     1      21.845  68.103  14.116  0.00  0.00    +0.000 C 
ATOM     19  C   UNL     1      23.102  69.910  12.864  0.00  0.00    +0.000 C 
ATOM     20  C   UNL     1      23.932  70.714  13.789  0.00  0.00    +0.000 C 
ATOM     21  C   UNL     1      22.986  71.928  14.384  0.00  0.00    +0.000 C 
ATOM     22  O   UNL     1      23.928  72.156  15.556  0.00  0.00    +0.000 OA
ATOM     23  C   UNL     1      22.060  70.892  15.268  0.00  0.00    +0.000 C 
ATOM     24  C   UNL     1      21.314  71.729  16.258  0.00  0.00    +0.000 C 
ATOM     25  C   UNL     1      22.802  69.828  15.798  0.00  0.00    +0.000 C 
ATOM     26  C   UNL     1      21.036  70.555  14.058  0.00  0.00    +0.000 C 
ATOM     27  C   UNL     1      20.083  69.589  14.972  0.00  0.00    +0.000 C 
ATOM     28  C   UNL     1      19.061  69.359  13.857  0.00  0.00    +0.000 C 
ATOM     29  C   UNL     1      19.607  68.553  12.765  0.00  0.00    +0.000 C 
ATOM     30  C   UNL     1      19.735  67.119  12.936  0.00  0.00    +0.000 C 
ATOM     31  C   UNL     1      18.249  66.610  10.120  0.00  0.00    +0.000 C 
ATOM     32  C   UNL     1      19.014  66.269   8.653  0.00  0.00    +0.000 C 
ATOM     33  C   UNL     1      19.837  65.047   9.286  0.00  0.00    +0.000 C 
ENDROOT
BRANCH   5   6
ATOM      6  C   UNL     1      15.796  66.673   9.693  0.00  0.00    +0.000 C 
ATOM      7  O   UNL     1      15.745  65.815  10.629  0.00  0.00    +0.000 OA
ATOM      8  O   UNL     1      14.578  67.347   9.516  0.00  0.00    +0.000 OA
ENDBRANCH   5   6
TORSDOF 1
ENDMDL
MODEL 7
REMARK VINA RESULT:      -7.2     37.198     41.834
REMARK  Name = 
REMARK  1 active torsions:
REMARK  status: ('A' for Active; 'I' for Inactive)
REMARK    1  A    between atoms: C_5  and  C_6
REMARK                            x       y       z     vdW  Elec       q    Type
REMARK                         _______ _______ _______ _____ _____    ______ ____
ROOT
ATOM      1  C   UNL     1      32.975  52.674 -24.456  0.00  0.00    +0.000 C 
ATOM      2  C   UNL     1      31.430  53.067 -24.155  0.00  0.00    +0.000 C 
ATOM      3  C   UNL     1      31.770  54.642 -23.972  0.00  0.00    +0.000 C 
ATOM      4  C   UNL     1      31.091  55.096 -22.709  0.00  0.00    +0.000 C 
ATOM      5  C   UNL     1      29.807  54.436 -22.532  0.00  0.00    +0.000 C 
ATOM      9  C   UNL     1      28.928  55.056 -21.508  0.00  0.00    +0.000 C 
ATOM     10  C   UNL     1      27.995  53.962 -20.988  0.00  0.00    +0.000 C 
ATOM     11  C   UNL     1      28.896  53.387 -19.940  0.00  0.00    +0.000 C 
ATOM     12  C   UNL     1      29.246  54.530 -18.991  0.00  0.00    +0.000 C 
ATOM     13  C   UNL     1      30.140  52.959 -20.664  0.00  0.00    +0.000 C 
ATOM     14  C   UNL     1      30.844  51.956 -20.119  0.00  0.00    +0.000 C 
ATOM     15  C   UNL     1      30.397  51.148 -18.944  0.00  0.00    +0.000 C 
ATOM     16  C   UNL     1      29.491  52.205 -18.090  0.00  0.00    +0.000 C 
ATOM     17  C   UNL     1      28.866  51.089 -17.068  0.00  0.00    +0.000 C 
ATOM     18  C   UNL     1      28.321  49.985 -17.745  0.00  0.00    +0.000 C 
ATOM     19  C   UNL     1      29.937  50.960 -16.056  0.00  0.00    +0.000 C 
ATOM     20  C   UNL     1      29.534  50.608 -14.676  0.00  0.00    +0.000 C 
ATOM     21  C   UNL     1      28.464  51.753 -14.159  0.00  0.00    +0.000 C 
ATOM     22  O   UNL     1      27.942  50.841 -13.059  0.00  0.00    +0.000 OA
ATOM     23  C   UNL     1      27.289  51.250 -15.198  0.00  0.00    +0.000 C 
ATOM     24  C   UNL     1      26.009  51.854 -14.715  0.00  0.00    +0.000 C 
ATOM     25  C   UNL     1      27.286  49.859 -15.372  0.00  0.00    +0.000 C 
ATOM     26  C   UNL     1      27.807  52.154 -16.440  0.00  0.00    +0.000 C 
ATOM     27  C   UNL     1      26.588  51.702 -17.435  0.00  0.00    +0.000 C 
ATOM     28  C   UNL     1      27.019  52.636 -18.565  0.00  0.00    +0.000 C 
ATOM     29  C   UNL     1      28.280  52.218 -19.177  0.00  0.00    +0.000 C 
ATOM     30  C   UNL     1      28.285  51.104 -20.104  0.00  0.00    +0.000 C 
ATOM     31  C   UNL     1      29.939  52.845 -22.255  0.00  0.00    +0.000 C 
ATOM     32  C   UNL     1      31.608  52.764 -22.511  0.00  0.00    +0.000 C 
ATOM     33  C   UNL     1      31.569  51.174 -22.720  0.00  0.00    +0.000 C 
ENDROOT
BRANCH   5   6
ATOM      6  C   UNL     1      29.023  54.562 -23.809  0.00  0.00    +0.000 C 
ATOM      7  O   UNL     1      28.136  53.700 -24.100  0.00  0.00    +0.000 OA
ATOM      8  O   UNL     1      28.652  55.861 -24.185  0.00  0.00    +0.000 OA
ENDBRANCH   5   6
TORSDOF 1
ENDMDL
MODEL 8
REMARK VINA RESULT:      -7.1     27.473     29.354
REMARK  Name = 
REMARK  1 active torsions:
REMARK  status: ('A' for Active; 'I' for Inactive)
REMARK    1  A    between atoms: C_5  and  C_6
REMARK                            x       y       z     vdW  Elec       q    Type
REMARK                         _______ _______ _______ _____ _____    ______ ____
ROOT
ATOM      1  C   UNL     1      19.244  66.038   7.716  0.00  0.00    +0.000 C 
ATOM      2  C   UNL     1      18.605  66.152   9.203  0.00  0.00    +0.000 C 
ATOM      3  C   UNL     1      17.592  67.344   8.777  0.00  0.00    +0.000 C 
ATOM      4  C   UNL     1      17.707  68.416   9.826  0.00  0.00    +0.000 C 
ATOM      5  C   UNL     1      17.902  67.843  11.149  0.00  0.00    +0.000 C 
ATOM      9  C   UNL     1      17.695  68.793  12.272  0.00  0.00    +0.000 C 
ATOM     10  C   UNL     1      18.526  68.289  13.452  0.00  0.00    +0.000 C 
ATOM     11  C   UNL     1      19.830  68.926  13.087  0.00  0.00    +0.000 C 
ATOM     12  C   UNL     1      19.572  70.427  12.993  0.00  0.00    +0.000 C 
ATOM     13  C   UNL     1      20.170  68.405  11.720  0.00  0.00    +0.000 C 
ATOM     14  C   UNL     1      21.470  68.353  11.397  0.00  0.00    +0.000 C 
ATOM     15  C   UNL     1      22.591  68.630  12.345  0.00  0.00    +0.000 C 
ATOM     16  C   UNL     1      21.944  69.717  13.378  0.00  0.00    +0.000 C 
ATOM     17  C   UNL     1      23.164  69.647  14.467  0.00  0.00    +0.000 C 
ATOM     18  C   UNL     1      23.477  68.329  14.840  0.00  0.00    +0.000 C 
ATOM     19  C   UNL     1      24.158  70.572  13.882  0.00  0.00    +0.000 C 
ATOM     20  C   UNL     1      25.050  71.296  14.815  0.00  0.00    +0.000 C 
ATOM     21  C   UNL     1      24.099  72.147  15.860  0.00  0.00    +0.000 C 
ATOM     22  O   UNL     1      25.235  72.286  16.861  0.00  0.00    +0.000 OA
ATOM     23  C   UNL     1      23.547  70.785  16.604  0.00  0.00    +0.000 C 
ATOM     24  C   UNL     1      22.929  71.227  17.893  0.00  0.00    +0.000 C 
ATOM     25  C   UNL     1      24.530  69.792  16.703  0.00  0.00    +0.000 C 
ATOM     26  C   UNL     1      22.338  70.534  15.555  0.00  0.00    +0.000 C 
ATOM     27  C   UNL     1      21.757  69.227  16.350  0.00  0.00    +0.000 C 
ATOM     28  C   UNL     1      20.556  69.059  15.418  0.00  0.00    +0.000 C 
ATOM     29  C   UNL     1      20.954  68.631  14.077  0.00  0.00    +0.000 C 
ATOM     30  C   UNL     1      21.317  67.246  13.851  0.00  0.00    +0.000 C 
ATOM     31  C   UNL     1      19.330  67.095  11.316  0.00  0.00    +0.000 C 
ATOM     32  C   UNL     1      19.790  67.237   9.697  0.00  0.00    +0.000 C 
ATOM     33  C   UNL     1      20.897  66.086   9.838  0.00  0.00    +0.000 C 
ENDROOT
BRANCH   5   6
ATOM      6  C   UNL     1      16.859  66.784  11.371  0.00  0.00    +0.000 C 
ATOM      7  O   UNL     1      17.141  65.743  12.045  0.00  0.00    +0.000 OA
ATOM      8  O   UNL     1      15.552  67.237  11.605  0.00  0.00    +0.000 OA
ENDBRANCH   5   6
TORSDOF 1
ENDMDL
MODEL 9
REMARK VINA RESULT:      -7.0     18.633     20.839
REMARK  Name = 
REMARK  1 active torsions:
REMARK  status: ('A' for Active; 'I' for Inactive)
REMARK    1  A    between atoms: C_5  and  C_6
REMARK                            x       y       z     vdW  Elec       q    Type
REMARK                         _______ _______ _______ _____ _____    ______ ____
ROOT
ATOM      1  C   UNL     1      30.574  47.985  -2.690  0.00  0.00    +0.000 C 
ATOM      2  C   UNL     1      29.843  47.382  -1.373  0.00  0.00    +0.000 C 
ATOM      3  C   UNL     1      28.634  46.725  -2.232  0.00  0.00    +0.000 C 
ATOM      4  C   UNL     1      27.350  47.107  -1.548  0.00  0.00    +0.000 C 
ATOM      5  C   UNL     1      27.505  47.128  -0.102  0.00  0.00    +0.000 C 
ATOM      9  C   UNL     1      26.230  47.166   0.658  0.00  0.00    +0.000 C 
ATOM     10  C   UNL     1      26.525  47.821   2.007  0.00  0.00    +0.000 C 
ATOM     11  C   UNL     1      26.379  49.251   1.593  0.00  0.00    +0.000 C 
ATOM     12  C   UNL     1      24.969  49.400   1.026  0.00  0.00    +0.000 C 
ATOM     13  C   UNL     1      27.371  49.456   0.484  0.00  0.00    +0.000 C 
ATOM     14  C   UNL     1      27.842  50.701   0.315  0.00  0.00    +0.000 C 
ATOM     15  C   UNL     1      27.567  51.844   1.237  0.00  0.00    +0.000 C 
ATOM     16  C   UNL     1      26.085  51.495   1.829  0.00  0.00    +0.000 C 
ATOM     17  C   UNL     1      26.107  52.640   2.998  0.00  0.00    +0.000 C 
ATOM     18  C   UNL     1      27.275  52.589   3.778  0.00  0.00    +0.000 C 
ATOM     19  C   UNL     1      25.690  53.850   2.258  0.00  0.00    +0.000 C 
ATOM     20  C   UNL     1      24.953  54.891   3.008  0.00  0.00    +0.000 C 
ATOM     21  C   UNL     1      23.608  54.186   3.655  0.00  0.00    +0.000 C 
ATOM     22  O   UNL     1      23.446  55.307   4.670  0.00  0.00    +0.000 OA
ATOM     23  C   UNL     1      24.485  53.286   4.719  0.00  0.00    +0.000 C 
ATOM     24  C   UNL     1      23.521  52.791   5.751  0.00  0.00    +0.000 C 
ATOM     25  C   UNL     1      25.607  53.970   5.204  0.00  0.00    +0.000 C 
ATOM     26  C   UNL     1      24.747  52.066   3.685  0.00  0.00    +0.000 C 
ATOM     27  C   UNL     1      25.550  51.150   4.779  0.00  0.00    +0.000 C 
ATOM     28  C   UNL     1      25.702  49.959   3.832  0.00  0.00    +0.000 C 
ATOM     29  C   UNL     1      26.615  50.245   2.726  0.00  0.00    +0.000 C 
ATOM     30  C   UNL     1      28.044  50.232   2.963  0.00  0.00    +0.000 C 
ATOM     31  C   UNL     1      28.491  48.305   0.416  0.00  0.00    +0.000 C 
ATOM     32  C   UNL     1      28.985  48.806  -1.120  0.00  0.00    +0.000 C 
ATOM     33  C   UNL     1      30.270  49.567  -0.535  0.00  0.00    +0.000 C 
ENDROOT
BRANCH   5   6
ATOM      6  C   UNL     1      28.148  45.840   0.330  0.00  0.00    +0.000 C 
ATOM      7  O   UNL     1      28.983  45.834   1.288  0.00  0.00    +0.000 OA
ATOM      8  O   UNL     1      27.326  44.703   0.327  0.00  0.00    +0.000 OA
ENDBRANCH   5   6
TORSDOF 1
ENDMDL
MODEL 10
REMARK VINA RESULT:      -6.9      3.262      9.595
REMARK  Name = 
REMARK  1 active torsions:
REMARK  status: ('A' for Active; 'I' for Inactive)
REMARK    1  A    between atoms: C_5  and  C_6
REMARK                            x       y       z     vdW  Elec       q    Type
REMARK                         _______ _______ _______ _____ _____    ______ ____
ROOT
ATOM      1  C   UNL     1      24.586  41.947  20.649  0.00  0.00    +0.000 C 
ATOM      2  C   UNL     1      25.511  40.645  20.363  0.00  0.00    +0.000 C 
ATOM      3  C   UNL     1      24.930  40.448  18.862  0.00  0.00    +0.000 C 
ATOM      4  C   UNL     1      24.576  38.993  18.714  0.00  0.00    +0.000 C 
ATOM      5  C   UNL     1      25.521  38.144  19.422  0.00  0.00    +0.000 C 
ATOM      9  C   UNL     1      25.449  36.704  19.063  0.00  0.00    +0.000 C 
ATOM     10  C   UNL     1      25.966  35.911  20.263  0.00  0.00    +0.000 C 
ATOM     11  C   UNL     1      24.689  35.833  21.039  0.00  0.00    +0.000 C 
ATOM     12  C   UNL     1      23.667  35.157  20.130  0.00  0.00    +0.000 C 
ATOM     13  C   UNL     1      24.266  37.256  21.271  0.00  0.00    +0.000 C 
ATOM     14  C   UNL     1      23.517  37.496  22.356  0.00  0.00    +0.000 C 
ATOM     15  C   UNL     1      23.209  36.487  23.414  0.00  0.00    +0.000 C 
ATOM     16  C   UNL     1      23.209  35.075  22.592  0.00  0.00    +0.000 C 
ATOM     17  C   UNL     1      23.174  34.118  23.920  0.00  0.00    +0.000 C 
ATOM     18  C   UNL     1      24.165  34.460  24.855  0.00  0.00    +0.000 C 
ATOM     19  C   UNL     1      21.733  34.097  24.250  0.00  0.00    +0.000 C 
ATOM     20  C   UNL     1      21.201  32.883  24.908  0.00  0.00    +0.000 C 
ATOM     21  C   UNL     1      21.530  31.596  23.929  0.00  0.00    +0.000 C 
ATOM     22  O   UNL     1      21.340  30.612  25.072  0.00  0.00    +0.000 OA
ATOM     23  C   UNL     1      23.150  31.684  24.210  0.00  0.00    +0.000 C 
ATOM     24  C   UNL     1      23.731  30.383  23.754  0.00  0.00    +0.000 C 
ATOM     25  C   UNL     1      23.446  32.061  25.527  0.00  0.00    +0.000 C 
ATOM     26  C   UNL     1      23.434  32.771  23.043  0.00  0.00    +0.000 C 
ATOM     27  C   UNL     1      25.053  32.789  23.285  0.00  0.00    +0.000 C 
ATOM     28  C   UNL     1      25.328  33.732  22.114  0.00  0.00    +0.000 C 
ATOM     29  C   UNL     1      24.820  35.081  22.361  0.00  0.00    +0.000 C 
ATOM     30  C   UNL     1      25.556  35.968  23.240  0.00  0.00    +0.000 C 
ATOM     31  C   UNL     1      25.452  38.314  21.031  0.00  0.00    +0.000 C 
ATOM     32  C   UNL     1      24.364  39.607  21.021  0.00  0.00    +0.000 C 
ATOM     33  C   UNL     1      24.736  40.023  22.524  0.00  0.00    +0.000 C 
ENDROOT
BRANCH   5   6
ATOM      6  C   UNL     1      26.915  38.547  19.029  0.00  0.00    +0.000 C 
ATOM      7  O   UNL     1      27.853  38.514  19.886  0.00  0.00    +0.000 OA
ATOM      8  O   UNL     1      27.341  38.153  17.752  0.00  0.00    +0.000 OA
ENDBRANCH   5   6
TORSDOF 1
ENDMDL
