MODEL 1
REMARK VINA RESULT:      -7.3      0.000      0.000
REMARK  Name = 
REMARK  3 active torsions:
REMARK  status: ('A' for Active; 'I' for Inactive)
REMARK    1  A    between atoms: C_2  and  O_4
REMARK    2  A    between atoms: O_4  and  C_5
REMARK    3  A    between atoms: C_26  and  C_27
REMARK                            x       y       z     vdW  Elec       q    Type
REMARK                         _______ _______ _______ _____ _____    ______ ____
ROOT
ATOM      5  C   UNL     1      16.412  57.642 -20.147  0.00  0.00    +0.000 C 
ATOM      6  C   UNL     1      16.811  56.811 -18.785  0.00  0.00    +0.000 C 
ATOM      7  C   UNL     1      15.631  56.816 -17.897  0.00  0.00    +0.000 C 
ATOM      8  C   UNL     1      15.081  58.158 -17.517  0.00  0.00    +0.000 C 
ATOM      9  C   UNL     1      15.732  58.888 -16.476  0.00  0.00    +0.000 C 
ATOM     10  C   UNL     1      14.826  58.974 -18.893  0.00  0.00    +0.000 C 
ATOM     11  C   UNL     1      14.798  60.429 -18.147  0.00  0.00    +0.000 C 
ATOM     12  C   UNL     1      13.601  60.240 -17.255  0.00  0.00    +0.000 C 
ATOM     13  C   UNL     1      12.772  59.063 -17.484  0.00  0.00    +0.000 C 
ATOM     14  C   UNL     1      12.241  58.892 -18.897  0.00  0.00    +0.000 C 
ATOM     15  C   UNL     1      13.570  57.697 -17.107  0.00  0.00    +0.000 C 
ATOM     16  C   UNL     1      13.716  58.129 -15.537  0.00  0.00    +0.000 C 
ATOM     17  C   UNL     1      12.428  57.842 -14.887  0.00  0.00    +0.000 C 
ATOM     18  C   UNL     1      11.381  57.974 -15.683  0.00  0.00    +0.000 C 
ATOM     19  C   UNL     1       9.982  58.338 -14.985  0.00  0.00    +0.000 C 
ATOM     20  C   UNL     1      10.163  57.274 -13.686  0.00  0.00    +0.000 C 
ATOM     21  C   UNL     1      10.032  58.512 -12.665  0.00  0.00    +0.000 C 
ATOM     22  C   UNL     1       8.562  56.736 -13.587  0.00  0.00    +0.000 C 
ATOM     23  C   UNL     1       8.325  57.007 -12.003  0.00  0.00    +0.000 C 
ATOM     24  C   UNL     1       7.832  58.110 -14.057  0.00  0.00    +0.000 C 
ATOM     25  C   UNL     1       7.757  57.661 -15.527  0.00  0.00    +0.000 C 
ATOM     26  C   UNL     1       9.147  57.352 -15.961  0.00  0.00    +0.000 C 
ATOM     30  C   UNL     1       9.420  57.892 -17.333  0.00  0.00    +0.000 C 
ATOM     31  C   UNL     1      10.243  59.116 -17.420  0.00  0.00    +0.000 C 
ATOM     32  C   UNL     1      11.533  59.111 -16.658  0.00  0.00    +0.000 C 
ATOM     33  C   UNL     1      11.540  60.407 -15.851  0.00  0.00    +0.000 C 
ATOM     34  C   UNL     1      16.374  59.078 -19.351  0.00  0.00    +0.000 C 
ATOM     35  C   UNL     1      17.355  59.167 -18.355  0.00  0.00    +0.000 C 
ATOM     36  C   UNL     1      16.336  60.147 -20.397  0.00  0.00    +0.000 C 
ENDROOT
BRANCH  26  27
ATOM     27  C   UNL     1       9.616  55.997 -15.892  0.00  0.00    +0.000 C 
ATOM     28  O   UNL     1      10.526  55.655 -16.713  0.00  0.00    +0.000 OA
ATOM     29  O   UNL     1       8.703  54.936 -15.768  0.00  0.00    +0.000 OA
ENDBRANCH  26  27
BRANCH   5   4
ATOM      4  O   UNL     1      17.888  57.834 -20.535  0.00  0.00    +0.000 OA
BRANCH   4   2
ATOM      1  C   UNL     1      17.091  56.811 -22.621  0.00  0.00    +0.000 C 
ATOM      2  C   UNL     1      18.201  57.327 -21.798  0.00  0.00    +0.000 C 
ATOM      3  O   UNL     1      19.307  57.568 -22.368  0.00  0.00    +0.000 OA
ENDBRANCH   4   2
ENDBRANCH   5   4
TORSDOF 3
ENDMDL
MODEL 2
REMARK VINA RESULT:      -7.3     38.445     44.066
REMARK  Name = 
REMARK  3 active torsions:
REMARK  status: ('A' for Active; 'I' for Inactive)
REMARK    1  A    between atoms: C_2  and  O_4
REMARK    2  A    between atoms: O_4  and  C_5
REMARK    3  A    between atoms: C_26  and  C_27
REMARK                            x       y       z     vdW  Elec       q    Type
REMARK                         _______ _______ _______ _____ _____    ______ ____
ROOT
ATOM      5  C   UNL     1       0.335  57.493  27.935  0.00  0.00    +0.000 C 
ATOM      6  C   UNL     1       1.867  58.000  28.253  0.00  0.00    +0.000 C 
ATOM      7  C   UNL     1       2.745  57.458  27.196  0.00  0.00    +0.000 C 
ATOM      8  C   UNL     1       2.740  55.970  27.016  0.00  0.00    +0.000 C 
ATOM      9  C   UNL     1       3.516  55.176  27.915  0.00  0.00    +0.000 C 
ATOM     10  C   UNL     1       1.196  55.516  26.834  0.00  0.00    +0.000 C 
ATOM     11  C   UNL     1       1.499  53.957  27.219  0.00  0.00    +0.000 C 
ATOM     12  C   UNL     1       2.436  53.590  26.100  0.00  0.00    +0.000 C 
ATOM     13  C   UNL     1       2.569  54.537  24.999  0.00  0.00    +0.000 C 
ATOM     14  C   UNL     1       1.276  54.941  24.313  0.00  0.00    +0.000 C 
ATOM     15  C   UNL     1       3.300  55.906  25.484  0.00  0.00    +0.000 C 
ATOM     16  C   UNL     1       4.679  55.119  25.874  0.00  0.00    +0.000 C 
ATOM     17  C   UNL     1       5.414  54.885  24.621  0.00  0.00    +0.000 C 
ATOM     18  C   UNL     1       4.638  54.712  23.565  0.00  0.00    +0.000 C 
ATOM     19  C   UNL     1       5.236  53.832  22.363  0.00  0.00    +0.000 C 
ATOM     20  C   UNL     1       6.779  54.518  22.409  0.00  0.00    +0.000 C 
ATOM     21  C   UNL     1       7.409  53.060  22.670  0.00  0.00    +0.000 C 
ATOM     22  C   UNL     1       7.064  54.586  20.742  0.00  0.00    +0.000 C 
ATOM     23  C   UNL     1       8.511  53.848  20.725  0.00  0.00    +0.000 C 
ATOM     24  C   UNL     1       6.241  53.251  20.316  0.00  0.00    +0.000 C 
ATOM     25  C   UNL     1       4.961  54.045  20.000  0.00  0.00    +0.000 C 
ATOM     26  C   UNL     1       4.600  54.800  21.232  0.00  0.00    +0.000 C 
ATOM     30  C   UNL     1       3.125  54.736  21.495  0.00  0.00    +0.000 C 
ATOM     31  C   UNL     1       2.675  53.830  22.572  0.00  0.00    +0.000 C 
ATOM     32  C   UNL     1       3.377  53.956  23.889  0.00  0.00    +0.000 C 
ATOM     33  C   UNL     1       3.782  52.536  24.278  0.00  0.00    +0.000 C 
ATOM     34  C   UNL     1       0.691  55.935  28.312  0.00  0.00    +0.000 C 
ATOM     35  C   UNL     1       1.597  55.833  29.376  0.00  0.00    +0.000 C 
ATOM     36  C   UNL     1      -0.614  55.213  28.430  0.00  0.00    +0.000 C 
ENDROOT
BRANCH  26  27
ATOM     27  C   UNL     1       5.040  56.159  21.372  0.00  0.00    +0.000 C 
ATOM     28  O   UNL     1       4.272  56.957  22.001  0.00  0.00    +0.000 OA
ATOM     29  O   UNL     1       5.593  56.842  20.276  0.00  0.00    +0.000 OA
ENDBRANCH  26  27
BRANCH   5   4
ATOM      4  O   UNL     1      -0.126  57.792  29.372  0.00  0.00    +0.000 OA
BRANCH   4   2
ATOM      1  C   UNL     1      -0.334  59.833  30.722  0.00  0.00    +0.000 C 
ATOM      2  C   UNL     1      -0.696  59.058  29.521  0.00  0.00    +0.000 C 
ATOM      3  O   UNL     1      -1.243  59.671  28.556  0.00  0.00    +0.000 OA
ENDBRANCH   4   2
ENDBRANCH   5   4
TORSDOF 3
ENDMDL
MODEL 3
REMARK VINA RESULT:      -7.2     13.776     17.505
REMARK  Name = 
REMARK  3 active torsions:
REMARK  status: ('A' for Active; 'I' for Inactive)
REMARK    1  A    between atoms: C_2  and  O_4
REMARK    2  A    between atoms: O_4  and  C_5
REMARK    3  A    between atoms: C_26  and  C_27
REMARK                            x       y       z     vdW  Elec       q    Type
REMARK                         _______ _______ _______ _____ _____    ______ ____
ROOT
ATOM      5  C   UNL     1       7.161  45.742 -14.025  0.00  0.00    +0.000 C 
ATOM      6  C   UNL     1       8.288  46.341 -15.063  0.00  0.00    +0.000 C 
ATOM      7  C   UNL     1       8.148  45.615 -16.341  0.00  0.00    +0.000 C 
ATOM      8  C   UNL     1       8.270  44.122 -16.283  0.00  0.00    +0.000 C 
ATOM      9  C   UNL     1       9.577  43.550 -16.227  0.00  0.00    +0.000 C 
ATOM     10  C   UNL     1       7.228  43.603 -15.157  0.00  0.00    +0.000 C 
ATOM     11  C   UNL     1       7.981  42.165 -14.972  0.00  0.00    +0.000 C 
ATOM     12  C   UNL     1       7.802  41.598 -16.355  0.00  0.00    +0.000 C 
ATOM     13  C   UNL     1       6.896  42.300 -17.256  0.00  0.00    +0.000 C 
ATOM     14  C   UNL     1       5.487  42.523 -16.737  0.00  0.00    +0.000 C 
ATOM     15  C   UNL     1       7.488  43.758 -17.669  0.00  0.00    +0.000 C 
ATOM     16  C   UNL     1       8.796  43.103 -18.397  0.00  0.00    +0.000 C 
ATOM     17  C   UNL     1       8.365  42.634 -19.723  0.00  0.00    +0.000 C 
ATOM     18  C   UNL     1       7.108  42.227 -19.769  0.00  0.00    +0.000 C 
ATOM     19  C   UNL     1       6.741  41.134 -20.886  0.00  0.00    +0.000 C 
ATOM     20  C   UNL     1       7.639  41.852 -22.122  0.00  0.00    +0.000 C 
ATOM     21  C   UNL     1       8.491  40.495 -22.279  0.00  0.00    +0.000 C 
ATOM     22  C   UNL     1       6.558  41.584 -23.396  0.00  0.00    +0.000 C 
ATOM     23  C   UNL     1       7.596  40.894 -24.438  0.00  0.00    +0.000 C 
ATOM     24  C   UNL     1       5.946  40.169 -22.879  0.00  0.00    +0.000 C 
ATOM     25  C   UNL     1       4.755  40.849 -22.181  0.00  0.00    +0.000 C 
ATOM     26  C   UNL     1       5.317  41.833 -21.215  0.00  0.00    +0.000 C 
ATOM     30  C   UNL     1       4.586  41.788 -19.907  0.00  0.00    +0.000 C 
ATOM     31  C   UNL     1       5.265  41.112 -18.782  0.00  0.00    +0.000 C 
ATOM     32  C   UNL     1       6.679  41.524 -18.509  0.00  0.00    +0.000 C 
ATOM     33  C   UNL     1       7.476  40.225 -18.417  0.00  0.00    +0.000 C 
ATOM     34  C   UNL     1       7.942  44.305 -13.887  0.00  0.00    +0.000 C 
ATOM     35  C   UNL     1       9.336  44.445 -13.906  0.00  0.00    +0.000 C 
ATOM     36  C   UNL     1       7.325  43.590 -12.727  0.00  0.00    +0.000 C 
ENDROOT
BRANCH  26  27
ATOM     27  C   UNL     1       5.466  43.202 -21.619  0.00  0.00    +0.000 C 
ATOM     28  O   UNL     1       5.380  44.089 -20.710  0.00  0.00    +0.000 OA
ATOM     29  O   UNL     1       4.815  43.677 -22.770  0.00  0.00    +0.000 OA
ENDBRANCH  26  27
BRANCH   5   4
ATOM      4  O   UNL     1       7.894  46.319 -12.802  0.00  0.00    +0.000 OA
BRANCH   4   2
ATOM      1  C   UNL     1       6.824  47.390 -10.868  0.00  0.00    +0.000 C 
ATOM      2  C   UNL     1       7.278  47.454 -12.269  0.00  0.00    +0.000 C 
ATOM      3  O   UNL     1       7.370  48.593 -12.817  0.00  0.00    +0.000 OA
ENDBRANCH   4   2
ENDBRANCH   5   4
TORSDOF 3
ENDMDL
MODEL 4
REMARK VINA RESULT:      -7.2     14.255     17.582
REMARK  Name = 
REMARK  3 active torsions:
REMARK  status: ('A' for Active; 'I' for Inactive)
REMARK    1  A    between atoms: C_2  and  O_4
REMARK    2  A    between atoms: O_4  and  C_5
REMARK    3  A    between atoms: C_26  and  C_27
REMARK                            x       y       z     vdW  Elec       q    Type
REMARK                         _______ _______ _______ _____ _____    ______ ____
ROOT
ATOM      5  C   UNL     1       7.993  39.176 -18.433  0.00  0.00    +0.000 C 
ATOM      6  C   UNL     1       7.485  40.389 -19.419  0.00  0.00    +0.000 C 
ATOM      7  C   UNL     1       7.163  41.552 -18.568  0.00  0.00    +0.000 C 
ATOM      8  C   UNL     1       6.149  41.333 -17.486  0.00  0.00    +0.000 C 
ATOM      9  C   UNL     1       4.765  41.348 -17.839  0.00  0.00    +0.000 C 
ATOM     10  C   UNL     1       6.639  40.051 -16.626  0.00  0.00    +0.000 C 
ATOM     11  C   UNL     1       5.159  39.779 -15.989  0.00  0.00    +0.000 C 
ATOM     12  C   UNL     1       4.967  41.059 -15.222  0.00  0.00    +0.000 C 
ATOM     13  C   UNL     1       6.124  41.936 -15.080  0.00  0.00    +0.000 C 
ATOM     14  C   UNL     1       7.366  41.301 -14.481  0.00  0.00    +0.000 C 
ATOM     15  C   UNL     1       6.558  42.576 -16.510  0.00  0.00    +0.000 C 
ATOM     16  C   UNL     1       5.131  43.357 -16.677  0.00  0.00    +0.000 C 
ATOM     17  C   UNL     1       5.198  44.566 -15.842  0.00  0.00    +0.000 C 
ATOM     18  C   UNL     1       5.940  44.431 -14.756  0.00  0.00    +0.000 C 
ATOM     19  C   UNL     1       5.571  45.367 -13.505  0.00  0.00    +0.000 C 
ATOM     20  C   UNL     1       5.318  46.767 -14.416  0.00  0.00    +0.000 C 
ATOM     21  C   UNL     1       3.814  46.853 -13.848  0.00  0.00    +0.000 C 
ATOM     22  C   UNL     1       6.020  47.880 -13.351  0.00  0.00    +0.000 C 
ATOM     23  C   UNL     1       4.789  48.937 -13.278  0.00  0.00    +0.000 C 
ATOM     24  C   UNL     1       5.627  47.139 -11.958  0.00  0.00    +0.000 C 
ATOM     25  C   UNL     1       6.977  46.404 -11.877  0.00  0.00    +0.000 C 
ATOM     26  C   UNL     1       7.127  45.624 -13.137  0.00  0.00    +0.000 C 
ATOM     30  C   UNL     1       7.661  44.251 -12.865  0.00  0.00    +0.000 C 
ATOM     31  C   UNL     1       6.698  43.132 -12.925  0.00  0.00    +0.000 C 
ATOM     32  C   UNL     1       5.832  43.060 -14.146  0.00  0.00    +0.000 C 
ATOM     33  C   UNL     1       4.404  42.901 -13.629  0.00  0.00    +0.000 C 
ATOM     34  C   UNL     1       6.492  38.954 -17.806  0.00  0.00    +0.000 C 
ATOM     35  C   UNL     1       5.479  39.135 -18.756  0.00  0.00    +0.000 C 
ATOM     36  C   UNL     1       6.527  37.659 -17.056  0.00  0.00    +0.000 C 
ENDROOT
BRANCH  26  27
ATOM     27  C   UNL     1       7.855  46.199 -14.232  0.00  0.00    +0.000 C 
ATOM     28  O   UNL     1       8.566  45.411 -14.934  0.00  0.00    +0.000 OA
ATOM     29  O   UNL     1       8.558  47.404 -14.062  0.00  0.00    +0.000 OA
ENDBRANCH  26  27
BRANCH   5   4
ATOM      4  O   UNL     1       7.756  38.112 -19.518  0.00  0.00    +0.000 OA
BRANCH   4   2
ATOM      1  C   UNL     1       9.635  37.438 -20.949  0.00  0.00    +0.000 C 
ATOM      2  C   UNL     1       8.848  37.264 -19.713  0.00  0.00    +0.000 C 
ATOM      3  O   UNL     1       9.358  36.590 -18.769  0.00  0.00    +0.000 OA
ENDBRANCH   4   2
ENDBRANCH   5   4
TORSDOF 3
ENDMDL
MODEL 5
REMARK VINA RESULT:      -7.0     23.129     27.183
REMARK  Name = 
REMARK  3 active torsions:
REMARK  status: ('A' for Active; 'I' for Inactive)
REMARK    1  A    between atoms: C_2  and  O_4
REMARK    2  A    between atoms: O_4  and  C_5
REMARK    3  A    between atoms: C_26  and  C_27
REMARK                            x       y       z     vdW  Elec       q    Type
REMARK                         _______ _______ _______ _____ _____    ______ ____
ROOT
ATOM      5  C   UNL     1       8.777  56.963   7.257  0.00  0.00    +0.000 C 
ATOM      6  C   UNL     1       9.129  58.076   8.414  0.00  0.00    +0.000 C 
ATOM      7  C   UNL     1       7.850  58.602   8.933  0.00  0.00    +0.000 C 
ATOM      8  C   UNL     1       6.915  59.207   7.930  0.00  0.00    +0.000 C 
ATOM      9  C   UNL     1       7.161  60.544   7.493  0.00  0.00    +0.000 C 
ATOM     10  C   UNL     1       6.706  58.112   6.754  0.00  0.00    +0.000 C 
ATOM     11  C   UNL     1       6.173  59.218   5.675  0.00  0.00    +0.000 C 
ATOM     12  C   UNL     1       4.926  59.686   6.377  0.00  0.00    +0.000 C 
ATOM     13  C   UNL     1       4.482  58.922   7.537  0.00  0.00    +0.000 C 
ATOM     14  C   UNL     1       4.272  57.435   7.309  0.00  0.00    +0.000 C 
ATOM     15  C   UNL     1       5.525  59.071   8.776  0.00  0.00    +0.000 C 
ATOM     16  C   UNL     1       5.276  60.682   8.889  0.00  0.00    +0.000 C 
ATOM     17  C   UNL     1       4.011  60.875   9.614  0.00  0.00    +0.000 C 
ATOM     18  C   UNL     1       3.122  59.917   9.415  0.00  0.00    +0.000 C 
ATOM     19  C   UNL     1       1.576  60.316   9.579  0.00  0.00    +0.000 C 
ATOM     20  C   UNL     1       1.793  61.249  10.970  0.00  0.00    +0.000 C 
ATOM     21  C   UNL     1       1.170  62.520  10.204  0.00  0.00    +0.000 C 
ATOM     22  C   UNL     1       0.393  60.781  11.797  0.00  0.00    +0.000 C 
ATOM     23  C   UNL     1      -0.182  62.262  12.134  0.00  0.00    +0.000 C 
ATOM     24  C   UNL     1      -0.571  60.566  10.506  0.00  0.00    +0.000 C 
ATOM     25  C   UNL     1      -0.267  59.059  10.430  0.00  0.00    +0.000 C 
ATOM     26  C   UNL     1       1.210  58.917  10.308  0.00  0.00    +0.000 C 
ATOM     30  C   UNL     1       1.573  57.878   9.290  0.00  0.00    +0.000 C 
ATOM     31  C   UNL     1       2.055  58.362   7.979  0.00  0.00    +0.000 C 
ATOM     32  C   UNL     1       3.147  59.388   8.006  0.00  0.00    +0.000 C 
ATOM     33  C   UNL     1       2.677  60.513   7.087  0.00  0.00    +0.000 C 
ATOM     34  C   UNL     1       8.231  58.108   6.214  0.00  0.00    +0.000 C 
ATOM     35  C   UNL     1       8.964  59.299   6.291  0.00  0.00    +0.000 C 
ATOM     36  C   UNL     1       8.104  57.447   4.878  0.00  0.00    +0.000 C 
ENDROOT
BRANCH  26  27
ATOM     27  C   UNL     1       1.992  58.702  11.492  0.00  0.00    +0.000 C 
ATOM     28  O   UNL     1       3.010  57.946  11.386  0.00  0.00    +0.000 OA
ATOM     29  O   UNL     1       1.362  58.436  12.720  0.00  0.00    +0.000 OA
ENDBRANCH  26  27
BRANCH   5   4
ATOM      4  O   UNL     1      10.198  57.032   6.673  0.00  0.00    +0.000 OA
BRANCH   4   2
ATOM      1  C   UNL     1      11.448  56.064   8.552  0.00  0.00    +0.000 C 
ATOM      2  C   UNL     1      11.039  56.018   7.136  0.00  0.00    +0.000 C 
ATOM      3  O   UNL     1      11.205  54.934   6.500  0.00  0.00    +0.000 OA
ENDBRANCH   4   2
ENDBRANCH   5   4
TORSDOF 3
ENDMDL
MODEL 6
REMARK VINA RESULT:      -7.0     12.319     15.975
REMARK  Name = 
REMARK  3 active torsions:
REMARK  status: ('A' for Active; 'I' for Inactive)
REMARK    1  A    between atoms: C_2  and  O_4
REMARK    2  A    between atoms: O_4  and  C_5
REMARK    3  A    between atoms: C_26  and  C_27
REMARK                            x       y       z     vdW  Elec       q    Type
REMARK                         _______ _______ _______ _____ _____    ______ ____
ROOT
ATOM      5  C   UNL     1       7.202  46.643 -13.699  0.00  0.00    +0.000 C 
ATOM      6  C   UNL     1       8.657  45.877 -13.730  0.00  0.00    +0.000 C 
ATOM      7  C   UNL     1       8.954  45.537 -15.137  0.00  0.00    +0.000 C 
ATOM      8  C   UNL     1       7.936  44.702 -15.855  0.00  0.00    +0.000 C 
ATOM      9  C   UNL     1       7.935  43.292 -15.630  0.00  0.00    +0.000 C 
ATOM     10  C   UNL     1       6.506  45.442 -15.683  0.00  0.00    +0.000 C 
ATOM     11  C   UNL     1       5.649  44.096 -16.038  0.00  0.00    +0.000 C 
ATOM     12  C   UNL     1       6.109  43.861 -17.452  0.00  0.00    +0.000 C 
ATOM     13  C   UNL     1       6.883  44.918 -18.090  0.00  0.00    +0.000 C 
ATOM     14  C   UNL     1       6.236  46.292 -18.111  0.00  0.00    +0.000 C 
ATOM     15  C   UNL     1       8.340  45.089 -17.389  0.00  0.00    +0.000 C 
ATOM     16  C   UNL     1       8.796  43.573 -17.797  0.00  0.00    +0.000 C 
ATOM     17  C   UNL     1       9.204  43.609 -19.210  0.00  0.00    +0.000 C 
ATOM     18  C   UNL     1       8.547  44.496 -19.939  0.00  0.00    +0.000 C 
ATOM     19  C   UNL     1       8.413  44.186 -21.508  0.00  0.00    +0.000 C 
ATOM     20  C   UNL     1      10.005  43.661 -21.710  0.00  0.00    +0.000 C 
ATOM     21  C   UNL     1       9.459  42.242 -22.242  0.00  0.00    +0.000 C 
ATOM     22  C   UNL     1      10.303  44.362 -23.221  0.00  0.00    +0.000 C 
ATOM     23  C   UNL     1      10.852  43.039 -23.986  0.00  0.00    +0.000 C 
ATOM     24  C   UNL     1       8.800  44.240 -23.828  0.00  0.00    +0.000 C 
ATOM     25  C   UNL     1       8.419  45.663 -23.385  0.00  0.00    +0.000 C 
ATOM     26  C   UNL     1       8.641  45.737 -21.914  0.00  0.00    +0.000 C 
ATOM     30  C   UNL     1       7.516  46.455 -21.231  0.00  0.00    +0.000 C 
ATOM     31  C   UNL     1       6.539  45.625 -20.495  0.00  0.00    +0.000 C 
ATOM     32  C   UNL     1       7.103  44.623 -19.534  0.00  0.00    +0.000 C 
ATOM     33  C   UNL     1       6.416  43.301 -19.867  0.00  0.00    +0.000 C 
ATOM     34  C   UNL     1       6.386  45.270 -14.079  0.00  0.00    +0.000 C 
ATOM     35  C   UNL     1       6.948  44.129 -13.491  0.00  0.00    +0.000 C 
ATOM     36  C   UNL     1       4.938  45.547 -13.826  0.00  0.00    +0.000 C 
ENDROOT
BRANCH  26  27
ATOM     27  C   UNL     1       9.888  46.249 -21.421  0.00  0.00    +0.000 C 
ATOM     28  O   UNL     1       9.868  46.840 -20.294  0.00  0.00    +0.000 OA
ATOM     29  O   UNL     1      10.758  46.946 -22.277  0.00  0.00    +0.000 OA
ENDBRANCH  26  27
BRANCH   5   4
ATOM      4  O   UNL     1       7.034  46.390 -12.191  0.00  0.00    +0.000 OA
BRANCH   4   2
ATOM      1  C   UNL     1       6.258  48.718 -12.090  0.00  0.00    +0.000 C 
ATOM      2  C   UNL     1       6.906  47.562 -11.443  0.00  0.00    +0.000 C 
ATOM      3  O   UNL     1       7.034  47.576 -10.182  0.00  0.00    +0.000 OA
ENDBRANCH   4   2
ENDBRANCH   5   4
TORSDOF 3
ENDMDL
MODEL 7
REMARK VINA RESULT:      -6.9     23.202     25.594
REMARK  Name = 
REMARK  3 active torsions:
REMARK  status: ('A' for Active; 'I' for Inactive)
REMARK    1  A    between atoms: C_2  and  O_4
REMARK    2  A    between atoms: O_4  and  C_5
REMARK    3  A    between atoms: C_26  and  C_27
REMARK                            x       y       z     vdW  Elec       q    Type
REMARK                         _______ _______ _______ _____ _____    ______ ____
ROOT
ATOM      5  C   UNL     1      23.514  54.189   3.546  0.00  0.00    +0.000 C 
ATOM      6  C   UNL     1      24.828  54.921   2.881  0.00  0.00    +0.000 C 
ATOM      7  C   UNL     1      25.651  53.872   2.246  0.00  0.00    +0.000 C 
ATOM      8  C   UNL     1      26.102  52.746   3.127  0.00  0.00    +0.000 C 
ATOM      9  C   UNL     1      27.228  52.961   3.978  0.00  0.00    +0.000 C 
ATOM     10  C   UNL     1      24.782  52.148   3.849  0.00  0.00    +0.000 C 
ATOM     11  C   UNL     1      25.633  51.424   5.042  0.00  0.00    +0.000 C 
ATOM     12  C   UNL     1      26.444  50.452   4.229  0.00  0.00    +0.000 C 
ATOM     13  C   UNL     1      26.083  50.284   2.826  0.00  0.00    +0.000 C 
ATOM     14  C   UNL     1      24.635  49.913   2.556  0.00  0.00    +0.000 C 
ATOM     15  C   UNL     1      26.396  51.632   1.971  0.00  0.00    +0.000 C 
ATOM     16  C   UNL     1      28.000  51.539   2.275  0.00  0.00    +0.000 C 
ATOM     17  C   UNL     1      28.558  50.536   1.355  0.00  0.00    +0.000 C 
ATOM     18  C   UNL     1      27.720  49.559   1.049  0.00  0.00    +0.000 C 
ATOM     19  C   UNL     1      28.370  48.148   0.643  0.00  0.00    +0.000 C 
ATOM     20  C   UNL     1      29.591  48.801  -0.323  0.00  0.00    +0.000 C 
ATOM     21  C   UNL     1      30.695  48.087   0.606  0.00  0.00    +0.000 C 
ATOM     22  C   UNL     1      29.565  47.647  -1.561  0.00  0.00    +0.000 C 
ATOM     23  C   UNL     1      31.150  47.293  -1.581  0.00  0.00    +0.000 C 
ATOM     24  C   UNL     1      29.163  46.356  -0.658  0.00  0.00    +0.000 C 
ATOM     25  C   UNL     1      27.662  46.518  -0.952  0.00  0.00    +0.000 C 
ATOM     26  C   UNL     1      27.278  47.893  -0.526  0.00  0.00    +0.000 C 
ATOM     30  C   UNL     1      25.969  47.890   0.203  0.00  0.00    +0.000 C 
ATOM     31  C   UNL     1      26.018  48.033   1.673  0.00  0.00    +0.000 C 
ATOM     32  C   UNL     1      26.844  49.163   2.207  0.00  0.00    +0.000 C 
ATOM     33  C   UNL     1      27.746  48.545   3.273  0.00  0.00    +0.000 C 
ATOM     34  C   UNL     1      24.414  53.465   4.713  0.00  0.00    +0.000 C 
ATOM     35  C   UNL     1      25.464  54.276   5.163  0.00  0.00    +0.000 C 
ATOM     36  C   UNL     1      23.453  52.934   5.729  0.00  0.00    +0.000 C 
ENDROOT
BRANCH  26  27
ATOM     27  C   UNL     1      27.269  48.949  -1.498  0.00  0.00    +0.000 C 
ATOM     28  O   UNL     1      26.453  49.907  -1.307  0.00  0.00    +0.000 OA
ATOM     29  O   UNL     1      27.294  48.649  -2.871  0.00  0.00    +0.000 OA
ENDBRANCH  26  27
BRANCH   5   4
ATOM      4  O   UNL     1      23.220  55.399   4.447  0.00  0.00    +0.000 OA
BRANCH   4   2
ATOM      1  C   UNL     1      21.180  55.764   3.128  0.00  0.00    +0.000 C 
ATOM      2  C   UNL     1      22.326  56.310   3.880  0.00  0.00    +0.000 C 
ATOM      3  O   UNL     1      22.284  57.526   4.233  0.00  0.00    +0.000 OA
ENDBRANCH   4   2
ENDBRANCH   5   4
TORSDOF 3
ENDMDL
MODEL 8
REMARK VINA RESULT:      -6.9     17.074     19.658
REMARK  Name = 
REMARK  3 active torsions:
REMARK  status: ('A' for Active; 'I' for Inactive)
REMARK    1  A    between atoms: C_2  and  O_4
REMARK    2  A    between atoms: O_4  and  C_5
REMARK    3  A    between atoms: C_26  and  C_27
REMARK                            x       y       z     vdW  Elec       q    Type
REMARK                         _______ _______ _______ _____ _____    ______ ____
ROOT
ATOM      5  C   UNL     1      33.575  59.391 -10.651  0.00  0.00    +0.000 C 
ATOM      6  C   UNL     1      33.610  57.754 -10.505  0.00  0.00    +0.000 C 
ATOM      7  C   UNL     1      32.416  57.347  -9.736  0.00  0.00    +0.000 C 
ATOM      8  C   UNL     1      32.249  57.964  -8.380  0.00  0.00    +0.000 C 
ATOM      9  C   UNL     1      32.998  57.423  -7.292  0.00  0.00    +0.000 C 
ATOM     10  C   UNL     1      32.348  59.569  -8.571  0.00  0.00    +0.000 C 
ATOM     11  C   UNL     1      32.682  59.842  -6.994  0.00  0.00    +0.000 C 
ATOM     12  C   UNL     1      31.415  59.324  -6.367  0.00  0.00    +0.000 C 
ATOM     13  C   UNL     1      30.303  59.016  -7.258  0.00  0.00    +0.000 C 
ATOM     14  C   UNL     1      29.857  60.142  -8.174  0.00  0.00    +0.000 C 
ATOM     15  C   UNL     1      30.641  57.738  -8.204  0.00  0.00    +0.000 C 
ATOM     16  C   UNL     1      30.783  56.733  -6.923  0.00  0.00    +0.000 C 
ATOM     17  C   UNL     1      29.421  56.369  -6.504  0.00  0.00    +0.000 C 
ATOM     18  C   UNL     1      28.521  57.315  -6.713  0.00  0.00    +0.000 C 
ATOM     19  C   UNL     1      27.236  57.319  -5.750  0.00  0.00    +0.000 C 
ATOM     20  C   UNL     1      27.002  55.646  -5.783  0.00  0.00    +0.000 C 
ATOM     21  C   UNL     1      27.154  55.604  -4.181  0.00  0.00    +0.000 C 
ATOM     22  C   UNL     1      25.311  55.639  -5.844  0.00  0.00    +0.000 C 
ATOM     23  C   UNL     1      25.039  54.622  -4.607  0.00  0.00    +0.000 C 
ATOM     24  C   UNL     1      25.047  56.978  -4.961  0.00  0.00    +0.000 C 
ATOM     25  C   UNL     1      24.960  57.878  -6.206  0.00  0.00    +0.000 C 
ATOM     26  C   UNL     1      26.232  57.704  -6.960  0.00  0.00    +0.000 C 
ATOM     30  C   UNL     1      26.755  59.019  -7.454  0.00  0.00    +0.000 C 
ATOM     31  C   UNL     1      27.900  59.602  -6.724  0.00  0.00    +0.000 C 
ATOM     32  C   UNL     1      29.070  58.698  -6.484  0.00  0.00    +0.000 C 
ATOM     33  C   UNL     1      29.388  58.823  -4.995  0.00  0.00    +0.000 C 
ATOM     34  C   UNL     1      33.891  59.616  -9.055  0.00  0.00    +0.000 C 
ATOM     35  C   UNL     1      34.775  58.659  -8.542  0.00  0.00    +0.000 C 
ATOM     36  C   UNL     1      34.244  61.060  -8.887  0.00  0.00    +0.000 C 
ENDROOT
BRANCH  26  27
ATOM     27  C   UNL     1      26.283  56.750  -8.032  0.00  0.00    +0.000 C 
ATOM     28  O   UNL     1      27.032  57.030  -9.023  0.00  0.00    +0.000 OA
ATOM     29  O   UNL     1      25.102  56.162  -8.516  0.00  0.00    +0.000 OA
ENDBRANCH  26  27
BRANCH   5   4
ATOM      4  O   UNL     1      35.069  59.452 -11.011  0.00  0.00    +0.000 OA
BRANCH   4   2
ATOM      1  C   UNL     1      35.486  61.269 -12.609  0.00  0.00    +0.000 C 
ATOM      2  C   UNL     1      35.307  59.831 -12.333  0.00  0.00    +0.000 C 
ATOM      3  O   UNL     1      35.671  59.002 -13.219  0.00  0.00    +0.000 OA
ENDBRANCH   4   2
ENDBRANCH   5   4
TORSDOF 3
ENDMDL
MODEL 9
REMARK VINA RESULT:      -6.9     15.545     19.082
REMARK  Name = 
REMARK  3 active torsions:
REMARK  status: ('A' for Active; 'I' for Inactive)
REMARK    1  A    between atoms: C_2  and  O_4
REMARK    2  A    between atoms: O_4  and  C_5
REMARK    3  A    between atoms: C_26  and  C_27
REMARK                            x       y       z     vdW  Elec       q    Type
REMARK                         _______ _______ _______ _____ _____    ______ ____
ROOT
ATOM      5  C   UNL     1      28.182  49.734 -16.153  0.00  0.00    +0.000 C 
ATOM      6  C   UNL     1      26.949  49.506 -17.216  0.00  0.00    +0.000 C 
ATOM      7  C   UNL     1      27.309  50.192 -18.473  0.00  0.00    +0.000 C 
ATOM      8  C   UNL     1      27.617  51.655 -18.375  0.00  0.00    +0.000 C 
ATOM      9  C   UNL     1      26.527  52.576 -18.315  0.00  0.00    +0.000 C 
ATOM     10  C   UNL     1      28.747  51.829 -17.227  0.00  0.00    +0.000 C 
ATOM     11  C   UNL     1      28.432  53.418 -17.010  0.00  0.00    +0.000 C 
ATOM     12  C   UNL     1      28.786  53.942 -18.375  0.00  0.00    +0.000 C 
ATOM     13  C   UNL     1      29.469  53.032 -19.287  0.00  0.00    +0.000 C 
ATOM     14  C   UNL     1      30.748  52.404 -18.762  0.00  0.00    +0.000 C 
ATOM     15  C   UNL     1      28.493  51.814 -19.744  0.00  0.00    +0.000 C 
ATOM     16  C   UNL     1      27.437  52.832 -20.465  0.00  0.00    +0.000 C 
ATOM     17  C   UNL     1      28.005  53.190 -21.774  0.00  0.00    +0.000 C 
ATOM     18  C   UNL     1      29.327  53.222 -21.799  0.00  0.00    +0.000 C 
ATOM     19  C   UNL     1      30.008  54.191 -22.882  0.00  0.00    +0.000 C 
ATOM     20  C   UNL     1      28.962  53.788 -24.145  0.00  0.00    +0.000 C 
ATOM     21  C   UNL     1      28.535  55.335 -24.273  0.00  0.00    +0.000 C 
ATOM     22  C   UNL     1      30.095  53.767 -25.402  0.00  0.00    +0.000 C 
ATOM     23  C   UNL     1      29.314  54.748 -26.434  0.00  0.00    +0.000 C 
ATOM     24  C   UNL     1      31.077  54.935 -24.841  0.00  0.00    +0.000 C 
ATOM     25  C   UNL     1      32.013  53.927 -24.152  0.00  0.00    +0.000 C 
ATOM     26  C   UNL     1      31.179  53.123 -23.218  0.00  0.00    +0.000 C 
ATOM     30  C   UNL     1      31.871  52.926 -21.903  0.00  0.00    +0.000 C 
ATOM     31  C   UNL     1      31.395  53.741 -20.766  0.00  0.00    +0.000 C 
ATOM     32  C   UNL     1      29.918  53.743 -20.517  0.00  0.00    +0.000 C 
ATOM     33  C   UNL     1      29.523  55.214 -20.396  0.00  0.00    +0.000 C 
ATOM     34  C   UNL     1      27.841  51.331 -15.983  0.00  0.00    +0.000 C 
ATOM     35  C   UNL     1      26.466  51.594 -16.017  0.00  0.00    +0.000 C 
ATOM     36  C   UNL     1      28.618  51.812 -14.798  0.00  0.00    +0.000 C 
ENDROOT
BRANCH  26  27
ATOM     27  C   UNL     1      30.652  51.863 -23.660  0.00  0.00    +0.000 C 
ATOM     28  O   UNL     1      30.471  50.966 -22.775  0.00  0.00    +0.000 OA
ATOM     29  O   UNL     1      31.155  51.251 -24.821  0.00  0.00    +0.000 OA
ENDBRANCH  26  27
BRANCH   5   4
ATOM      4  O   UNL     1      27.296  49.361 -14.952  0.00  0.00    +0.000 OA
BRANCH   4   2
ATOM      1  C   UNL     1      29.386  48.429 -14.060  0.00  0.00    +0.000 C 
ATOM      2  C   UNL     1      27.912  48.483 -14.058  0.00  0.00    +0.000 C 
ATOM      3  O   UNL     1      27.297  47.982 -13.070  0.00  0.00    +0.000 OA
ENDBRANCH   4   2
ENDBRANCH   5   4
TORSDOF 3
ENDMDL
MODEL 10
REMARK VINA RESULT:      -6.9     40.552     43.525
REMARK  Name = 
REMARK  3 active torsions:
REMARK  status: ('A' for Active; 'I' for Inactive)
REMARK    1  A    between atoms: C_2  and  O_4
REMARK    2  A    between atoms: O_4  and  C_5
REMARK    3  A    between atoms: C_26  and  C_27
REMARK                            x       y       z     vdW  Elec       q    Type
REMARK                         _______ _______ _______ _____ _____    ______ ____
ROOT
ATOM      5  C   UNL     1      25.838  44.730  17.174  0.00  0.00    +0.000 C 
ATOM      6  C   UNL     1      24.623  45.527  17.944  0.00  0.00    +0.000 C 
ATOM      7  C   UNL     1      24.576  45.034  19.335  0.00  0.00    +0.000 C 
ATOM      8  C   UNL     1      24.397  43.557  19.519  0.00  0.00    +0.000 C 
ATOM      9  C   UNL     1      23.083  43.012  19.398  0.00  0.00    +0.000 C 
ATOM     10  C   UNL     1      25.543  42.825  18.639  0.00  0.00    +0.000 C 
ATOM     11  C   UNL     1      24.755  41.394  18.610  0.00  0.00    +0.000 C 
ATOM     12  C   UNL     1      24.742  41.075  20.081  0.00  0.00    +0.000 C 
ATOM     13  C   UNL     1      25.564  41.904  20.954  0.00  0.00    +0.000 C 
ATOM     14  C   UNL     1      27.033  42.001  20.586  0.00  0.00    +0.000 C 
ATOM     15  C   UNL     1      24.992  43.424  21.034  0.00  0.00    +0.000 C 
ATOM     16  C   UNL     1      23.578  42.936  21.694  0.00  0.00    +0.000 C 
ATOM     17  C   UNL     1      23.826  42.697  23.124  0.00  0.00    +0.000 C 
ATOM     18  C   UNL     1      25.050  42.278  23.396  0.00  0.00    +0.000 C 
ATOM     19  C   UNL     1      25.233  41.389  24.721  0.00  0.00    +0.000 C 
ATOM     20  C   UNL     1      24.225  42.333  25.693  0.00  0.00    +0.000 C 
ATOM     21  C   UNL     1      23.303  41.044  25.972  0.00  0.00    +0.000 C 
ATOM     22  C   UNL     1      25.133  42.268  27.120  0.00  0.00    +0.000 C 
ATOM     23  C   UNL     1      23.950  41.795  28.126  0.00  0.00    +0.000 C 
ATOM     24  C   UNL     1      25.741  40.772  26.933  0.00  0.00    +0.000 C 
ATOM     25  C   UNL     1      27.035  41.292  26.285  0.00  0.00    +0.000 C 
ATOM     26  C   UNL     1      26.636  42.103  25.101  0.00  0.00    +0.000 C 
ATOM     30  C   UNL     1      27.515  41.814  23.923  0.00  0.00    +0.000 C 
ATOM     31  C   UNL     1      26.948  40.966  22.853  0.00  0.00    +0.000 C 
ATOM     32  C   UNL     1      25.595  41.355  22.340  0.00  0.00    +0.000 C 
ATOM     33  C   UNL     1      24.759  40.078  22.372  0.00  0.00    +0.000 C 
ATOM     34  C   UNL     1      25.017  43.309  17.188  0.00  0.00    +0.000 C 
ATOM     35  C   UNL     1      23.638  43.481  17.007  0.00  0.00    +0.000 C 
ATOM     36  C   UNL     1      25.737  42.388  16.254  0.00  0.00    +0.000 C 
ENDROOT
BRANCH  26  27
ATOM     27  C   UNL     1      26.499  43.525  25.242  0.00  0.00    +0.000 C 
ATOM     28  O   UNL     1      26.738  44.237  24.215  0.00  0.00    +0.000 OA
ATOM     29  O   UNL     1      27.022  44.179  26.371  0.00  0.00    +0.000 OA
ENDBRANCH  26  27
BRANCH   5   4
ATOM      4  O   UNL     1      25.283  45.100  15.788  0.00  0.00    +0.000 OA
BRANCH   4   2
ATOM      1  C   UNL     1      27.559  45.888  15.309  0.00  0.00    +0.000 C 
ATOM      2  C   UNL     1      26.105  45.974  15.075  0.00  0.00    +0.000 C 
ATOM      3  O   UNL     1      25.701  46.597  14.048  0.00  0.00    +0.000 OA
ENDBRANCH   4   2
ENDBRANCH   5   4
TORSDOF 3
ENDMDL
