MODEL 1
REMARK VINA RESULT:      -8.4      0.000      0.000
REMARK  Name = 
REMARK  2 active torsions:
REMARK  status: ('A' for Active; 'I' for Inactive)
REMARK    1  A    between atoms: C_2  and  O_4
REMARK    2  A    between atoms: O_4  and  C_5
REMARK                            x       y       z     vdW  Elec       q    Type
REMARK                         _______ _______ _______ _____ _____    ______ ____
ROOT
ATOM      5  C   UNL     1       3.037  55.422  25.538  0.00  0.00    +0.000 C 
ATOM      6  C   UNL     1       2.848  55.685  23.923  0.00  0.00    +0.000 C 
ATOM      7  C   UNL     1       4.025  56.402  23.396  0.00  0.00    +0.000 C 
ATOM      8  C   UNL     1       5.202  55.516  23.176  0.00  0.00    +0.000 C 
ATOM      9  C   UNL     1       6.520  55.990  23.289  0.00  0.00    +0.000 C 
ATOM     10  C   UNL     1       4.790  54.271  24.142  0.00  0.00    +0.000 C 
ATOM     11  C   UNL     1       6.336  53.816  24.399  0.00  0.00    +0.000 C 
ATOM     12  C   UNL     1       6.399  52.993  23.109  0.00  0.00    +0.000 C 
ATOM     13  C   UNL     1       6.306  53.767  21.871  0.00  0.00    +0.000 C 
ATOM     14  C   UNL     1       7.485  54.471  21.408  0.00  0.00    +0.000 C 
ATOM     15  C   UNL     1       4.940  54.651  21.822  0.00  0.00    +0.000 C 
ATOM     16  C   UNL     1       5.556  55.773  20.808  0.00  0.00    +0.000 C 
ATOM     17  C   UNL     1       5.508  55.013  19.517  0.00  0.00    +0.000 C 
ATOM     18  C   UNL     1       5.939  53.592  19.571  0.00  0.00    +0.000 C 
ATOM     19  O   UNL     1       7.289  53.564  19.088  0.00  0.00    +0.000 OA
ATOM     20  C   UNL     1       7.528  52.434  18.316  0.00  0.00    +0.000 C 
ATOM     21  O   UNL     1       8.334  52.466  17.336  0.00  0.00    +0.000 OA
ATOM     22  C   UNL     1       6.295  51.670  18.315  0.00  0.00    +0.000 C 
ATOM     23  C   UNL     1       5.935  50.912  17.095  0.00  0.00    +0.000 C 
ATOM     24  C   UNL     1       4.548  50.343  17.403  0.00  0.00    +0.000 C 
ATOM     25  C   UNL     1       3.583  51.641  17.282  0.00  0.00    +0.000 C 
ATOM     26  C   UNL     1       2.288  50.853  17.856  0.00  0.00    +0.000 C 
ATOM     27  C   UNL     1       3.993  52.201  18.813  0.00  0.00    +0.000 C 
ATOM     28  C   UNL     1       3.073  53.506  18.642  0.00  0.00    +0.000 C 
ATOM     29  C   UNL     1       5.351  52.983  18.202  0.00  0.00    +0.000 C 
ATOM     30  C   UNL     1       6.008  50.887  19.519  0.00  0.00    +0.000 C 
ATOM     31  C   UNL     1       6.748  51.593  20.660  0.00  0.00    +0.000 C 
ATOM     32  C   UNL     1       5.849  52.824  20.746  0.00  0.00    +0.000 C 
ATOM     33  C   UNL     1       4.574  52.285  21.304  0.00  0.00    +0.000 C 
ATOM     34  C   UNL     1       4.652  55.157  25.488  0.00  0.00    +0.000 C 
ATOM     35  C   UNL     1       5.461  56.281  25.635  0.00  0.00    +0.000 C 
ATOM     36  C   UNL     1       4.919  54.146  26.603  0.00  0.00    +0.000 C 
ENDROOT
BRANCH   5   4
ATOM      4  O   UNL     1       3.152  56.934  25.814  0.00  0.00    +0.000 OA
BRANCH   4   2
ATOM      1  C   UNL     1       1.603  56.400  27.488  0.00  0.00    +0.000 C 
ATOM      2  C   UNL     1       2.350  57.244  26.922  0.00  0.00    +0.000 C 
ATOM      3  O   UNL     1       2.481  58.363  27.511  0.00  0.00    +0.000 OA
ENDBRANCH   4   2
ENDBRANCH   5   4
TORSDOF 2
ENDMDL
MODEL 2
REMARK VINA RESULT:      -7.9     40.067     44.604
REMARK  Name = 
REMARK  2 active torsions:
REMARK  status: ('A' for Active; 'I' for Inactive)
REMARK    1  A    between atoms: C_2  and  O_4
REMARK    2  A    between atoms: O_4  and  C_5
REMARK                            x       y       z     vdW  Elec       q    Type
REMARK                         _______ _______ _______ _____ _____    ______ ____
ROOT
ATOM      5  C   UNL     1      36.736  55.516 -12.510  0.00  0.00    +0.000 C 
ATOM      6  C   UNL     1      36.798  56.300 -11.062  0.00  0.00    +0.000 C 
ATOM      7  C   UNL     1      37.275  57.681 -11.267  0.00  0.00    +0.000 C 
ATOM      8  C   UNL     1      36.221  58.596 -11.787  0.00  0.00    +0.000 C 
ATOM      9  C   UNL     1      36.528  59.694 -12.607  0.00  0.00    +0.000 C 
ATOM     10  C   UNL     1      35.185  57.498 -12.398  0.00  0.00    +0.000 C 
ATOM     11  C   UNL     1      34.570  58.531 -13.503  0.00  0.00    +0.000 C 
ATOM     12  C   UNL     1      33.577  59.139 -12.509  0.00  0.00    +0.000 C 
ATOM     13  C   UNL     1      34.180  59.888 -11.406  0.00  0.00    +0.000 C 
ATOM     14  C   UNL     1      34.653  61.234 -11.664  0.00  0.00    +0.000 C 
ATOM     15  C   UNL     1      35.220  58.968 -10.557  0.00  0.00    +0.000 C 
ATOM     16  C   UNL     1      36.102  60.235 -10.027  0.00  0.00    +0.000 C 
ATOM     17  C   UNL     1      35.185  60.766  -8.967  0.00  0.00    +0.000 C 
ATOM     18  C   UNL     1      33.740  60.824  -9.311  0.00  0.00    +0.000 C 
ATOM     19  O   UNL     1      33.470  62.183  -9.679  0.00  0.00    +0.000 OA
ATOM     20  C   UNL     1      32.224  62.594  -9.223  0.00  0.00    +0.000 C 
ATOM     21  O   UNL     1      32.014  63.795  -8.871  0.00  0.00    +0.000 OA
ATOM     22  C   UNL     1      31.634  61.448  -8.555  0.00  0.00    +0.000 C 
ATOM     23  C   UNL     1      30.771  61.686  -7.376  0.00  0.00    +0.000 C 
ATOM     24  C   UNL     1      30.436  60.282  -6.867  0.00  0.00    +0.000 C 
ATOM     25  C   UNL     1      31.819  59.804  -6.170  0.00  0.00    +0.000 C 
ATOM     26  C   UNL     1      31.294  58.288  -5.941  0.00  0.00    +0.000 C 
ATOM     27  C   UNL     1      32.525  59.398  -7.641  0.00  0.00    +0.000 C 
ATOM     28  C   UNL     1      33.904  58.987  -6.927  0.00  0.00    +0.000 C 
ATOM     29  C   UNL     1      33.032  60.986  -7.875  0.00  0.00    +0.000 C 
ATOM     30  C   UNL     1      31.069  60.406  -9.414  0.00  0.00    +0.000 C 
ATOM     31  C   UNL     1      31.822  60.512 -10.745  0.00  0.00    +0.000 C 
ATOM     32  C   UNL     1      33.160  59.961 -10.259  0.00  0.00    +0.000 C 
ATOM     33  C   UNL     1      32.873  58.516 -10.017  0.00  0.00    +0.000 C 
ATOM     34  C   UNL     1      36.257  56.809 -13.394  0.00  0.00    +0.000 C 
ATOM     35  C   UNL     1      37.275  57.594 -13.928  0.00  0.00    +0.000 C 
ATOM     36  C   UNL     1      35.382  56.224 -14.502  0.00  0.00    +0.000 C 
ENDROOT
BRANCH   5   4
ATOM      4  O   UNL     1      38.243  55.738 -12.743  0.00  0.00    +0.000 OA
BRANCH   4   2
ATOM      1  C   UNL     1      39.944  54.379 -11.879  0.00  0.00    +0.000 C 
ATOM      2  C   UNL     1      38.903  54.511 -12.578  0.00  0.00    +0.000 C 
ATOM      3  O   UNL     1      38.365  53.437 -12.996  0.00  0.00    +0.000 OA
ENDBRANCH   4   2
ENDBRANCH   5   4
TORSDOF 2
ENDMDL
MODEL 3
REMARK VINA RESULT:      -7.8     21.248     24.023
REMARK  Name = 
REMARK  2 active torsions:
REMARK  status: ('A' for Active; 'I' for Inactive)
REMARK    1  A    between atoms: C_2  and  O_4
REMARK    2  A    between atoms: O_4  and  C_5
REMARK                            x       y       z     vdW  Elec       q    Type
REMARK                         _______ _______ _______ _____ _____    ______ ____
ROOT
ATOM      5  C   UNL     1      17.692  67.556  10.199  0.00  0.00    +0.000 C 
ATOM      6  C   UNL     1      17.688  68.601  11.471  0.00  0.00    +0.000 C 
ATOM      7  C   UNL     1      17.682  67.841  12.736  0.00  0.00    +0.000 C 
ATOM      8  C   UNL     1      19.021  67.301  13.104  0.00  0.00    +0.000 C 
ATOM      9  C   UNL     1      19.166  66.113  13.839  0.00  0.00    +0.000 C 
ATOM     10  C   UNL     1      19.743  67.349  11.645  0.00  0.00    +0.000 C 
ATOM     11  C   UNL     1      20.776  66.134  11.996  0.00  0.00    +0.000 C 
ATOM     12  C   UNL     1      21.773  67.066  12.689  0.00  0.00    +0.000 C 
ATOM     13  C   UNL     1      21.292  67.684  13.925  0.00  0.00    +0.000 C 
ATOM     14  C   UNL     1      21.285  66.888  15.136  0.00  0.00    +0.000 C 
ATOM     15  C   UNL     1      19.923  68.530  13.676  0.00  0.00    +0.000 C 
ATOM     16  C   UNL     1      19.408  68.387  15.219  0.00  0.00    +0.000 C 
ATOM     17  C   UNL     1      20.301  69.387  15.887  0.00  0.00    +0.000 C 
ATOM     18  C   UNL     1      21.727  69.385  15.466  0.00  0.00    +0.000 C 
ATOM     19  O   UNL     1      22.440  68.655  16.473  0.00  0.00    +0.000 OA
ATOM     20  C   UNL     1      23.684  69.220  16.723  0.00  0.00    +0.000 C 
ATOM     21  O   UNL     1      24.202  69.187  17.881  0.00  0.00    +0.000 OA
ATOM     22  C   UNL     1      23.810  70.351  15.821  0.00  0.00    +0.000 C 
ATOM     23  C   UNL     1      24.549  71.546  16.286  0.00  0.00    +0.000 C 
ATOM     24  C   UNL     1      24.376  72.559  15.152  0.00  0.00    +0.000 C 
ATOM     25  C   UNL     1      22.836  73.039  15.320  0.00  0.00    +0.000 C 
ATOM     26  C   UNL     1      22.844  73.877  13.933  0.00  0.00    +0.000 C 
ATOM     27  C   UNL     1      22.232  71.668  14.555  0.00  0.00    +0.000 C 
ATOM     28  C   UNL     1      20.714  72.142  14.787  0.00  0.00    +0.000 C 
ATOM     29  C   UNL     1      22.264  70.806  15.999  0.00  0.00    +0.000 C 
ATOM     30  C   UNL     1      24.136  70.045  14.427  0.00  0.00    +0.000 C 
ATOM     31  C   UNL     1      23.625  68.620  14.184  0.00  0.00    +0.000 C 
ATOM     32  C   UNL     1      22.133  68.942  14.194  0.00  0.00    +0.000 C 
ATOM     33  C   UNL     1      21.935  69.713  12.931  0.00  0.00    +0.000 C 
ATOM     34  C   UNL     1      18.647  66.424  10.898  0.00  0.00    +0.000 C 
ATOM     35  C   UNL     1      17.991  65.439  11.631  0.00  0.00    +0.000 C 
ATOM     36  C   UNL     1      19.436  65.809   9.743  0.00  0.00    +0.000 C 
ENDROOT
BRANCH   5   4
ATOM      4  O   UNL     1      16.364  66.922  10.660  0.00  0.00    +0.000 OA
BRANCH   4   2
ATOM      1  C   UNL     1      15.543  66.115   8.621  0.00  0.00    +0.000 C 
ATOM      2  C   UNL     1      15.470  66.931   9.580  0.00  0.00    +0.000 C 
ATOM      3  O   UNL     1      14.433  67.665   9.616  0.00  0.00    +0.000 OA
ENDBRANCH   4   2
ENDBRANCH   5   4
TORSDOF 2
ENDMDL
MODEL 4
REMARK VINA RESULT:      -7.8      1.356      8.117
REMARK  Name = 
REMARK  2 active torsions:
REMARK  status: ('A' for Active; 'I' for Inactive)
REMARK    1  A    between atoms: C_2  and  O_4
REMARK    2  A    between atoms: O_4  and  C_5
REMARK                            x       y       z     vdW  Elec       q    Type
REMARK                         _______ _______ _______ _____ _____    ______ ____
ROOT
ATOM      5  C   UNL     1       6.485  52.678  19.837  0.00  0.00    +0.000 C 
ATOM      6  C   UNL     1       7.004  53.184  21.316  0.00  0.00    +0.000 C 
ATOM      7  C   UNL     1       6.908  54.654  21.397  0.00  0.00    +0.000 C 
ATOM      8  C   UNL     1       5.523  55.140  21.649  0.00  0.00    +0.000 C 
ATOM      9  C   UNL     1       5.073  56.383  21.174  0.00  0.00    +0.000 C 
ATOM     10  C   UNL     1       4.683  53.829  21.170  0.00  0.00    +0.000 C 
ATOM     11  C   UNL     1       3.350  54.688  20.784  0.00  0.00    +0.000 C 
ATOM     12  C   UNL     1       2.826  54.685  22.223  0.00  0.00    +0.000 C 
ATOM     13  C   UNL     1       3.641  55.431  23.183  0.00  0.00    +0.000 C 
ATOM     14  C   UNL     1       3.526  56.875  23.208  0.00  0.00    +0.000 C 
ATOM     15  C   UNL     1       5.173  54.883  23.219  0.00  0.00    +0.000 C 
ATOM     16  C   UNL     1       5.797  56.298  23.743  0.00  0.00    +0.000 C 
ATOM     17  C   UNL     1       5.390  56.245  25.184  0.00  0.00    +0.000 C 
ATOM     18  C   UNL     1       4.009  55.772  25.465  0.00  0.00    +0.000 C 
ATOM     19  O   UNL     1       3.221  56.949  25.688  0.00  0.00    +0.000 OA
ATOM     20  C   UNL     1       2.286  56.750  26.696  0.00  0.00    +0.000 C 
ATOM     21  O   UNL     1       1.937  57.696  27.466  0.00  0.00    +0.000 OA
ATOM     22  C   UNL     1       2.443  55.375  27.134  0.00  0.00    +0.000 C 
ATOM     23  C   UNL     1       2.221  55.061  28.563  0.00  0.00    +0.000 C 
ATOM     24  C   UNL     1       2.587  53.579  28.683  0.00  0.00    +0.000 C 
ATOM     25  C   UNL     1       4.206  53.592  28.596  0.00  0.00    +0.000 C 
ATOM     26  C   UNL     1       4.312  51.978  28.511  0.00  0.00    +0.000 C 
ATOM     27  C   UNL     1       4.205  53.738  26.921  0.00  0.00    +0.000 C 
ATOM     28  C   UNL     1       5.809  53.807  26.872  0.00  0.00    +0.000 C 
ATOM     29  C   UNL     1       4.060  55.411  27.032  0.00  0.00    +0.000 C 
ATOM     30  C   UNL     1       1.860  54.342  26.275  0.00  0.00    +0.000 C 
ATOM     31  C   UNL     1       1.819  54.947  24.867  0.00  0.00    +0.000 C 
ATOM     32  C   UNL     1       3.320  54.909  24.593  0.00  0.00    +0.000 C 
ATOM     33  C   UNL     1       3.611  53.451  24.449  0.00  0.00    +0.000 C 
ATOM     34  C   UNL     1       5.295  53.791  19.673  0.00  0.00    +0.000 C 
ATOM     35  C   UNL     1       5.662  54.992  19.069  0.00  0.00    +0.000 C 
ATOM     36  C   UNL     1       4.206  53.086  18.866  0.00  0.00    +0.000 C 
ENDROOT
BRANCH   5   4
ATOM      4  O   UNL     1       7.562  53.517  19.123  0.00  0.00    +0.000 OA
BRANCH   4   2
ATOM      1  C   UNL     1       7.456  51.994  17.349  0.00  0.00    +0.000 C 
ATOM      2  C   UNL     1       8.135  52.735  18.110  0.00  0.00    +0.000 C 
ATOM      3  O   UNL     1       9.361  52.882  17.807  0.00  0.00    +0.000 OA
ENDBRANCH   4   2
ENDBRANCH   5   4
TORSDOF 2
ENDMDL
MODEL 5
REMARK VINA RESULT:      -7.7     11.676     15.528
REMARK  Name = 
REMARK  2 active torsions:
REMARK  status: ('A' for Active; 'I' for Inactive)
REMARK    1  A    between atoms: C_2  and  O_4
REMARK    2  A    between atoms: O_4  and  C_5
REMARK                            x       y       z     vdW  Elec       q    Type
REMARK                         _______ _______ _______ _____ _____    ______ ____
ROOT
ATOM      5  C   UNL     1       6.182  57.936   7.674  0.00  0.00    +0.000 C 
ATOM      6  C   UNL     1       5.792  58.503   9.170  0.00  0.00    +0.000 C 
ATOM      7  C   UNL     1       5.684  59.974   9.129  0.00  0.00    +0.000 C 
ATOM      8  C   UNL     1       4.401  60.453   8.544  0.00  0.00    +0.000 C 
ATOM      9  C   UNL     1       4.308  61.672   7.853  0.00  0.00    +0.000 C 
ATOM     10  C   UNL     1       3.958  59.116   7.727  0.00  0.00    +0.000 C 
ATOM     11  C   UNL     1       3.079  59.946   6.630  0.00  0.00    +0.000 C 
ATOM     12  C   UNL     1       1.840  59.990   7.528  0.00  0.00    +0.000 C 
ATOM     13  C   UNL     1       1.986  60.781   8.751  0.00  0.00    +0.000 C 
ATOM     14  C   UNL     1       1.894  62.224   8.654  0.00  0.00    +0.000 C 
ATOM     15  C   UNL     1       3.230  60.252   9.658  0.00  0.00    +0.000 C 
ATOM     16  C   UNL     1       3.470  61.692  10.389  0.00  0.00    +0.000 C 
ATOM     17  C   UNL     1       2.326  61.688  11.356  0.00  0.00    +0.000 C 
ATOM     18  C   UNL     1       1.019  61.212  10.834  0.00  0.00    +0.000 C 
ATOM     19  O   UNL     1       0.255  62.388  10.534  0.00  0.00    +0.000 OA
ATOM     20  C   UNL     1      -1.086  62.216  10.853  0.00  0.00    +0.000 C 
ATOM     21  O   UNL     1      -1.794  63.186  11.261  0.00  0.00    +0.000 OA
ATOM     22  C   UNL     1      -1.217  60.860  11.355  0.00  0.00    +0.000 C 
ATOM     23  C   UNL     1      -2.204  60.597  12.426  0.00  0.00    +0.000 C 
ATOM     24  C   UNL     1      -1.985  59.125  12.784  0.00  0.00    +0.000 C 
ATOM     25  C   UNL     1      -0.595  59.153  13.618  0.00  0.00    +0.000 C 
ATOM     26  C   UNL     1      -0.479  57.538  13.667  0.00  0.00    +0.000 C 
ATOM     27  C   UNL     1       0.343  59.236  12.225  0.00  0.00    +0.000 C 
ATOM     28  C   UNL     1       1.701  59.320  13.079  0.00  0.00    +0.000 C 
ATOM     29  C   UNL     1       0.181  60.910  12.174  0.00  0.00    +0.000 C 
ATOM     30  C   UNL     1      -1.232  59.790  10.356  0.00  0.00    +0.000 C 
ATOM     31  C   UNL     1      -0.471  60.340   9.145  0.00  0.00    +0.000 C 
ATOM     32  C   UNL     1       0.926  60.308   9.759  0.00  0.00    +0.000 C 
ATOM     33  C   UNL     1       1.230  58.850   9.856  0.00  0.00    +0.000 C 
ATOM     34  C   UNL     1       5.301  59.029   6.831  0.00  0.00    +0.000 C 
ATOM     35  C   UNL     1       5.957  60.210   6.491  0.00  0.00    +0.000 C 
ATOM     36  C   UNL     1       4.842  58.283   5.580  0.00  0.00    +0.000 C 
ENDROOT
BRANCH   5   4
ATOM      4  O   UNL     1       7.485  58.760   7.654  0.00  0.00    +0.000 OA
BRANCH   4   2
ATOM      1  C   UNL     1       8.982  56.976   7.409  0.00  0.00    +0.000 C 
ATOM      2  C   UNL     1       8.535  57.939   8.090  0.00  0.00    +0.000 C 
ATOM      3  O   UNL     1       9.200  58.251   9.128  0.00  0.00    +0.000 OA
ENDBRANCH   4   2
ENDBRANCH   5   4
TORSDOF 2
ENDMDL
MODEL 6
REMARK VINA RESULT:      -7.7     10.053     13.210
REMARK  Name = 
REMARK  2 active torsions:
REMARK  status: ('A' for Active; 'I' for Inactive)
REMARK    1  A    between atoms: C_2  and  O_4
REMARK    2  A    between atoms: O_4  and  C_5
REMARK                            x       y       z     vdW  Elec       q    Type
REMARK                         _______ _______ _______ _____ _____    ______ ____
ROOT
ATOM      5  C   UNL     1       1.524  62.701   9.329  0.00  0.00    +0.000 C 
ATOM      6  C   UNL     1       2.471  61.722  10.255  0.00  0.00    +0.000 C 
ATOM      7  C   UNL     1       1.958  61.700  11.638  0.00  0.00    +0.000 C 
ATOM      8  C   UNL     1       0.771  60.817  11.810  0.00  0.00    +0.000 C 
ATOM      9  C   UNL     1      -0.220  61.081  12.770  0.00  0.00    +0.000 C 
ATOM     10  C   UNL     1       0.276  60.721  10.261  0.00  0.00    +0.000 C 
ATOM     11  C   UNL     1      -1.281  60.437  10.661  0.00  0.00    +0.000 C 
ATOM     12  C   UNL     1      -1.052  58.934  10.839  0.00  0.00    +0.000 C 
ATOM     13  C   UNL     1      -0.175  58.566  11.952  0.00  0.00    +0.000 C 
ATOM     14  C   UNL     1      -0.722  58.581  13.294  0.00  0.00    +0.000 C 
ATOM     15  C   UNL     1       1.286  59.272  11.820  0.00  0.00    +0.000 C 
ATOM     16  C   UNL     1       1.589  59.227  13.424  0.00  0.00    +0.000 C 
ATOM     17  C   UNL     1       1.932  57.778  13.585  0.00  0.00    +0.000 C 
ATOM     18  C   UNL     1       1.070  56.809  12.859  0.00  0.00    +0.000 C 
ATOM     19  O   UNL     1       0.142  56.297  13.825  0.00  0.00    +0.000 OA
ATOM     20  C   UNL     1      -0.104  54.945  13.624  0.00  0.00    +0.000 C 
ATOM     21  O   UNL     1      -0.342  54.167  14.598  0.00  0.00    +0.000 OA
ATOM     22  C   UNL     1       0.669  54.556  12.458  0.00  0.00    +0.000 C 
ATOM     23  C   UNL     1       1.243  53.193  12.415  0.00  0.00    +0.000 C 
ATOM     24  C   UNL     1       2.077  53.178  11.132  0.00  0.00    +0.000 C 
ATOM     25  C   UNL     1       3.373  54.069  11.524  0.00  0.00    +0.000 C 
ATOM     26  C   UNL     1       3.940  54.090  10.007  0.00  0.00    +0.000 C 
ATOM     27  C   UNL     1       2.555  55.521  11.300  0.00  0.00    +0.000 C 
ATOM     28  C   UNL     1       3.839  56.376  11.750  0.00  0.00    +0.000 C 
ATOM     29  C   UNL     1       1.949  55.462  12.869  0.00  0.00    +0.000 C 
ATOM     30  C   UNL     1       0.123  54.934  11.154  0.00  0.00    +0.000 C 
ATOM     31  C   UNL     1      -0.753  56.166  11.410  0.00  0.00    +0.000 C 
ATOM     32  C   UNL     1       0.376  57.156  11.685  0.00  0.00    +0.000 C 
ATOM     33  C   UNL     1       1.018  57.331  10.348  0.00  0.00    +0.000 C 
ATOM     34  C   UNL     1       0.106  62.315  10.053  0.00  0.00    +0.000 C 
ATOM     35  C   UNL     1      -0.254  63.099  11.146  0.00  0.00    +0.000 C 
ATOM     36  C   UNL     1      -0.940  62.415   8.944  0.00  0.00    +0.000 C 
ENDROOT
BRANCH   5   4
ATOM      4  O   UNL     1       1.818  63.914  10.233  0.00  0.00    +0.000 OA
BRANCH   4   2
ATOM      1  C   UNL     1       2.700  66.038   9.796  0.00  0.00    +0.000 C 
ATOM      2  C   UNL     1       2.632  64.809   9.525  0.00  0.00    +0.000 C 
ATOM      3  O   UNL     1       3.476  64.371   8.680  0.00  0.00    +0.000 OA
ENDBRANCH   4   2
ENDBRANCH   5   4
TORSDOF 2
ENDMDL
MODEL 7
REMARK VINA RESULT:      -7.6     34.537     38.719
REMARK  Name = 
REMARK  2 active torsions:
REMARK  status: ('A' for Active; 'I' for Inactive)
REMARK    1  A    between atoms: C_2  and  O_4
REMARK    2  A    between atoms: O_4  and  C_5
REMARK                            x       y       z     vdW  Elec       q    Type
REMARK                         _______ _______ _______ _____ _____    ______ ____
ROOT
ATOM      5  C   UNL     1       5.393  47.292 -13.148  0.00  0.00    +0.000 C 
ATOM      6  C   UNL     1       5.056  46.688 -14.643  0.00  0.00    +0.000 C 
ATOM      7  C   UNL     1       6.306  46.552 -15.415  0.00  0.00    +0.000 C 
ATOM      8  C   UNL     1       7.100  45.349 -15.040  0.00  0.00    +0.000 C 
ATOM      9  C   UNL     1       8.501  45.322 -15.140  0.00  0.00    +0.000 C 
ATOM     10  C   UNL     1       6.469  45.053 -13.569  0.00  0.00    +0.000 C 
ATOM     11  C   UNL     1       7.815  44.312 -13.019  0.00  0.00    +0.000 C 
ATOM     12  C   UNL     1       7.423  42.962 -13.625  0.00  0.00    +0.000 C 
ATOM     13  C   UNL     1       7.393  42.922 -15.088  0.00  0.00    +0.000 C 
ATOM     14  C   UNL     1       8.650  42.809 -15.800  0.00  0.00    +0.000 C 
ATOM     15  C   UNL     1       6.381  44.043 -15.695  0.00  0.00    +0.000 C 
ATOM     16  C   UNL     1       7.158  44.147 -17.127  0.00  0.00    +0.000 C 
ATOM     17  C   UNL     1       6.682  42.882 -17.775  0.00  0.00    +0.000 C 
ATOM     18  C   UNL     1       6.650  41.671 -16.916  0.00  0.00    +0.000 C 
ATOM     19  O   UNL     1       7.835  40.927 -17.228  0.00  0.00    +0.000 OA
ATOM     20  C   UNL     1       7.591  39.559 -17.225  0.00  0.00    +0.000 C 
ATOM     21  O   UNL     1       8.210  38.779 -18.011  0.00  0.00    +0.000 OA
ATOM     22  C   UNL     1       6.195  39.393 -16.866  0.00  0.00    +0.000 C 
ATOM     23  C   UNL     1       5.437  38.276 -17.474  0.00  0.00    +0.000 C 
ATOM     24  C   UNL     1       4.004  38.479 -16.976  0.00  0.00    +0.000 C 
ATOM     25  C   UNL     1       3.487  39.742 -17.851  0.00  0.00    +0.000 C 
ATOM     26  C   UNL     1       2.112  39.890 -17.006  0.00  0.00    +0.000 C 
ATOM     27  C   UNL     1       4.276  40.859 -16.872  0.00  0.00    +0.000 C 
ATOM     28  C   UNL     1       3.796  42.086 -17.792  0.00  0.00    +0.000 C 
ATOM     29  C   UNL     1       5.703  40.665 -17.742  0.00  0.00    +0.000 C 
ATOM     30  C   UNL     1       5.860  39.539 -15.448  0.00  0.00    +0.000 C 
ATOM     31  C   UNL     1       6.947  40.445 -14.856  0.00  0.00    +0.000 C 
ATOM     32  C   UNL     1       6.501  41.746 -15.519  0.00  0.00    +0.000 C 
ATOM     33  C   UNL     1       5.219  42.068 -14.824  0.00  0.00    +0.000 C 
ATOM     34  C   UNL     1       6.818  46.508 -12.954  0.00  0.00    +0.000 C 
ATOM     35  C   UNL     1       7.950  47.176 -13.415  0.00  0.00    +0.000 C 
ATOM     36  C   UNL     1       6.918  46.241 -11.453  0.00  0.00    +0.000 C 
ENDROOT
BRANCH   5   4
ATOM      4  O   UNL     1       6.015  48.565 -13.755  0.00  0.00    +0.000 OA
BRANCH   4   2
ATOM      1  C   UNL     1       4.205  49.576 -12.666  0.00  0.00    +0.000 C 
ATOM      2  C   UNL     1       5.169  49.648 -13.476  0.00  0.00    +0.000 C 
ATOM      3  O   UNL     1       5.457  50.809 -13.907  0.00  0.00    +0.000 OA
ENDBRANCH   4   2
ENDBRANCH   5   4
TORSDOF 2
ENDMDL
MODEL 8
REMARK VINA RESULT:      -7.5     22.393     25.590
REMARK  Name = 
REMARK  2 active torsions:
REMARK  status: ('A' for Active; 'I' for Inactive)
REMARK    1  A    between atoms: C_2  and  O_4
REMARK    2  A    between atoms: O_4  and  C_5
REMARK                            x       y       z     vdW  Elec       q    Type
REMARK                         _______ _______ _______ _____ _____    ______ ____
ROOT
ATOM      5  C   UNL     1      22.958  35.708  21.823  0.00  0.00    +0.000 C 
ATOM      6  C   UNL     1      23.073  37.323  22.121  0.00  0.00    +0.000 C 
ATOM      7  C   UNL     1      24.427  37.641  22.614  0.00  0.00    +0.000 C 
ATOM      8  C   UNL     1      25.446  37.706  21.529  0.00  0.00    +0.000 C 
ATOM      9  C   UNL     1      26.793  37.379  21.755  0.00  0.00    +0.000 C 
ATOM     10  C   UNL     1      24.673  36.854  20.377  0.00  0.00    +0.000 C 
ATOM     11  C   UNL     1      26.053  36.379  19.647  0.00  0.00    +0.000 C 
ATOM     12  C   UNL     1      26.168  37.668  18.830  0.00  0.00    +0.000 C 
ATOM     13  C   UNL     1      26.409  38.882  19.613  0.00  0.00    +0.000 C 
ATOM     14  C   UNL     1      27.752  39.137  20.093  0.00  0.00    +0.000 C 
ATOM     15  C   UNL     1      25.248  39.111  20.730  0.00  0.00    +0.000 C 
ATOM     16  C   UNL     1      26.205  39.984  21.724  0.00  0.00    +0.000 C 
ATOM     17  C   UNL     1      26.224  41.290  20.989  0.00  0.00    +0.000 C 
ATOM     18  C   UNL     1      26.380  41.216  19.513  0.00  0.00    +0.000 C 
ATOM     19  O   UNL     1      27.762  41.487  19.243  0.00  0.00    +0.000 OA
ATOM     20  C   UNL     1      27.912  42.249  18.091  0.00  0.00    +0.000 C 
ATOM     21  O   UNL     1      28.853  43.092  17.978  0.00  0.00    +0.000 OA
ATOM     22  C   UNL     1      26.577  42.461  17.563  0.00  0.00    +0.000 C 
ATOM     23  C   UNL     1      26.282  43.745  16.887  0.00  0.00    +0.000 C 
ATOM     24  C   UNL     1      24.785  43.670  16.578  0.00  0.00    +0.000 C 
ATOM     25  C   UNL     1      24.098  43.897  18.029  0.00  0.00    +0.000 C 
ATOM     26  C   UNL     1      22.611  43.552  17.488  0.00  0.00    +0.000 C 
ATOM     27  C   UNL     1      24.358  42.304  18.501  0.00  0.00    +0.000 C 
ATOM     28  C   UNL     1      23.725  42.574  19.953  0.00  0.00    +0.000 C 
ATOM     29  C   UNL     1      25.913  42.676  19.026  0.00  0.00    +0.000 C 
ATOM     30  C   UNL     1      25.971  41.340  16.842  0.00  0.00    +0.000 C 
ATOM     31  C   UNL     1      26.639  40.078  17.398  0.00  0.00    +0.000 C 
ATOM     32  C   UNL     1      25.972  40.092  18.772  0.00  0.00    +0.000 C 
ATOM     33  C   UNL     1      24.549  39.752  18.471  0.00  0.00    +0.000 C 
ATOM     34  C   UNL     1      24.488  35.518  21.269  0.00  0.00    +0.000 C 
ATOM     35  C   UNL     1      25.451  35.214  22.227  0.00  0.00    +0.000 C 
ATOM     36  C   UNL     1      24.392  34.408  20.223  0.00  0.00    +0.000 C 
ENDROOT
BRANCH   5   4
ATOM      4  O   UNL     1      23.297  35.370  23.288  0.00  0.00    +0.000 OA
BRANCH   4   2
ATOM      1  C   UNL     1      22.163  33.321  23.284  0.00  0.00    +0.000 C 
ATOM      2  C   UNL     1      22.334  34.472  23.770  0.00  0.00    +0.000 C 
ATOM      3  O   UNL     1      21.705  34.727  24.845  0.00  0.00    +0.000 OA
ENDBRANCH   4   2
ENDBRANCH   5   4
TORSDOF 2
ENDMDL
MODEL 9
REMARK VINA RESULT:      -7.5     20.645     22.907
REMARK  Name = 
REMARK  2 active torsions:
REMARK  status: ('A' for Active; 'I' for Inactive)
REMARK    1  A    between atoms: C_2  and  O_4
REMARK    2  A    between atoms: O_4  and  C_5
REMARK                            x       y       z     vdW  Elec       q    Type
REMARK                         _______ _______ _______ _____ _____    ______ ____
ROOT
ATOM      5  C   UNL     1      23.342  69.443  14.300  0.00  0.00    +0.000 C 
ATOM      6  C   UNL     1      22.847  67.974  13.744  0.00  0.00    +0.000 C 
ATOM      7  C   UNL     1      21.659  67.533  14.501  0.00  0.00    +0.000 C 
ATOM      8  C   UNL     1      20.401  68.195  14.058  0.00  0.00    +0.000 C 
ATOM      9  C   UNL     1      19.334  68.430  14.940  0.00  0.00    +0.000 C 
ATOM     10  C   UNL     1      21.027  69.498  13.308  0.00  0.00    +0.000 C 
ATOM     11  C   UNL     1      19.700  70.415  13.556  0.00  0.00    +0.000 C 
ATOM     12  C   UNL     1      18.981  69.863  12.323  0.00  0.00    +0.000 C 
ATOM     13  C   UNL     1      18.628  68.444  12.392  0.00  0.00    +0.000 C 
ATOM     14  C   UNL     1      17.465  68.060  13.167  0.00  0.00    +0.000 C 
ATOM     15  C   UNL     1      19.939  67.515  12.652  0.00  0.00    +0.000 C 
ATOM     16  C   UNL     1      19.093  66.302  13.345  0.00  0.00    +0.000 C 
ATOM     17  C   UNL     1      18.480  65.681  12.127  0.00  0.00    +0.000 C 
ATOM     18  C   UNL     1      17.938  66.618  11.109  0.00  0.00    +0.000 C 
ATOM     19  O   UNL     1      16.520  66.664  11.322  0.00  0.00    +0.000 OA
ATOM     20  C   UNL     1      15.829  66.736  10.120  0.00  0.00    +0.000 C 
ATOM     21  O   UNL     1      14.690  66.194   9.982  0.00  0.00    +0.000 OA
ATOM     22  C   UNL     1      16.832  66.772   9.071  0.00  0.00    +0.000 C 
ATOM     23  C   UNL     1      16.529  66.110   7.783  0.00  0.00    +0.000 C 
ATOM     24  C   UNL     1      17.828  66.236   6.982  0.00  0.00    +0.000 C 
ATOM     25  C   UNL     1      18.802  65.149   7.689  0.00  0.00    +0.000 C 
ATOM     26  C   UNL     1      20.105  65.630   6.855  0.00  0.00    +0.000 C 
ATOM     27  C   UNL     1      19.170  66.178   8.968  0.00  0.00    +0.000 C 
ATOM     28  C   UNL     1      20.083  65.061   9.674  0.00  0.00    +0.000 C 
ATOM     29  C   UNL     1      17.793  65.690   9.802  0.00  0.00    +0.000 C 
ATOM     30  C   UNL     1      17.509  68.051   8.855  0.00  0.00    +0.000 C 
ATOM     31  C   UNL     1      17.432  68.795  10.193  0.00  0.00    +0.000 C 
ATOM     32  C   UNL     1      18.429  67.928  10.957  0.00  0.00    +0.000 C 
ATOM     33  C   UNL     1      19.740  68.268  10.329  0.00  0.00    +0.000 C 
ATOM     34  C   UNL     1      21.845  70.039  14.594  0.00  0.00    +0.000 C 
ATOM     35  C   UNL     1      21.331  69.796  15.866  0.00  0.00    +0.000 C 
ATOM     36  C   UNL     1      21.961  71.539  14.331  0.00  0.00    +0.000 C 
ENDROOT
BRANCH   5   4
ATOM      4  O   UNL     1      23.553  68.883  15.720  0.00  0.00    +0.000 OA
BRANCH   4   2
ATOM      1  C   UNL     1      25.520  70.142  15.554  0.00  0.00    +0.000 C 
ATOM      2  C   UNL     1      24.763  69.386  16.220  0.00  0.00    +0.000 C 
ATOM      3  O   UNL     1      25.058  69.232  17.447  0.00  0.00    +0.000 OA
ENDBRANCH   4   2
ENDBRANCH   5   4
TORSDOF 2
ENDMDL
MODEL 10
REMARK VINA RESULT:      -7.4     21.239     23.643
REMARK  Name = 
REMARK  2 active torsions:
REMARK  status: ('A' for Active; 'I' for Inactive)
REMARK    1  A    between atoms: C_2  and  O_4
REMARK    2  A    between atoms: O_4  and  C_5
REMARK                            x       y       z     vdW  Elec       q    Type
REMARK                         _______ _______ _______ _____ _____    ______ ____
ROOT
ATOM      5  C   UNL     1      24.847  69.750  13.401  0.00  0.00    +0.000 C 
ATOM      6  C   UNL     1      24.106  68.316  13.076  0.00  0.00    +0.000 C 
ATOM      7  C   UNL     1      23.303  67.898  14.241  0.00  0.00    +0.000 C 
ATOM      8  C   UNL     1      22.002  68.617  14.345  0.00  0.00    +0.000 C 
ATOM      9  C   UNL     1      21.388  68.867  15.583  0.00  0.00    +0.000 C 
ATOM     10  C   UNL     1      22.334  69.916  13.421  0.00  0.00    +0.000 C 
ATOM     11  C   UNL     1      21.258  70.874  14.189  0.00  0.00    +0.000 C 
ATOM     12  C   UNL     1      20.083  70.381  13.341  0.00  0.00    +0.000 C 
ATOM     13  C   UNL     1      19.724  68.975  13.531  0.00  0.00    +0.000 C 
ATOM     14  C   UNL     1      18.952  68.613  14.703  0.00  0.00    +0.000 C 
ATOM     15  C   UNL     1      20.987  67.992  13.235  0.00  0.00    +0.000 C 
ATOM     16  C   UNL     1      20.437  66.792  14.197  0.00  0.00    +0.000 C 
ATOM     17  C   UNL     1      19.361  66.227  13.320  0.00  0.00    +0.000 C 
ATOM     18  C   UNL     1      18.498  67.210  12.614  0.00  0.00    +0.000 C 
ATOM     19  O   UNL     1      17.289  67.302  13.378  0.00  0.00    +0.000 OA
ATOM     20  C   UNL     1      16.178  67.432  12.554  0.00  0.00    +0.000 C 
ATOM     21  O   UNL     1      15.056  66.936  12.878  0.00  0.00    +0.000 OA
ATOM     22  C   UNL     1      16.678  67.459  11.192  0.00  0.00    +0.000 C 
ATOM     23  C   UNL     1      15.857  66.843  10.126  0.00  0.00    +0.000 C 
ATOM     24  C   UNL     1      16.731  66.943   8.873  0.00  0.00    +0.000 C 
ATOM     25  C   UNL     1      17.858  65.804   9.120  0.00  0.00    +0.000 C 
ATOM     26  C   UNL     1      18.739  66.259   7.838  0.00  0.00    +0.000 C 
ATOM     27  C   UNL     1      18.751  66.783  10.154  0.00  0.00    +0.000 C 
ATOM     28  C   UNL     1      19.821  65.615  10.424  0.00  0.00    +0.000 C 
ATOM     29  C   UNL     1      17.803  66.323  11.465  0.00  0.00    +0.000 C 
ATOM     30  C   UNL     1      17.268  68.718  10.735  0.00  0.00    +0.000 C 
ATOM     31  C   UNL     1      17.765  69.428  11.999  0.00  0.00    +0.000 C 
ATOM     32  C   UNL     1      18.945  68.505  12.292  0.00  0.00    +0.000 C 
ATOM     33  C   UNL     1      19.909  68.814  11.194  0.00  0.00    +0.000 C 
ATOM     34  C   UNL     1      23.620  70.392  14.276  0.00  0.00    +0.000 C 
ATOM     35  C   UNL     1      23.647  70.134  15.645  0.00  0.00    +0.000 C 
ATOM     36  C   UNL     1      23.688  71.894  14.004  0.00  0.00    +0.000 C 
ENDROOT
BRANCH   5   4
ATOM      4  O   UNL     1      25.583  69.145  14.612  0.00  0.00    +0.000 OA
BRANCH   4   2
ATOM      1  C   UNL     1      27.379  70.485  13.933  0.00  0.00    +0.000 C 
ATOM      2  C   UNL     1      26.948  69.442  14.496  0.00  0.00    +0.000 C 
ATOM      3  O   UNL     1      27.808  68.742  15.118  0.00  0.00    +0.000 OA
ENDBRANCH   4   2
ENDBRANCH   5   4
TORSDOF 2
ENDMDL
