MODEL 1
REMARK VINA RESULT:      -8.8      0.000      0.000
REMARK  Name = 
REMARK  0 active torsions:
REMARK  status: ('A' for Active; 'I' for Inactive)
REMARK                            x       y       z     vdW  Elec       q    Type
REMARK                         _______ _______ _______ _____ _____    ______ ____
ROOT
ATOM      1  C   UNL     1      17.679  67.139   7.986  0.00  0.00    +0.000 C 
ATOM      2  C   UNL     1      17.888  65.834   8.938  0.00  0.00    +0.000 C 
ATOM      3  C   UNL     1      16.410  65.878   9.576  0.00  0.00    +0.000 C 
ATOM      4  C   UNL     1      15.988  67.196   9.971  0.00  0.00    +0.000 C 
ATOM      5  C   UNL     1      16.760  67.730  11.061  0.00  0.00    +0.000 C 
ATOM      6  C   UNL     1      17.409  68.965  10.725  0.00  0.00    +0.000 C 
ATOM      7  C   UNL     1      18.295  69.632  11.737  0.00  0.00    +0.000 C 
ATOM      8  C   UNL     1      19.248  68.540  12.150  0.00  0.00    +0.000 C 
ATOM      9  C   UNL     1      20.317  68.540  11.115  0.00  0.00    +0.000 C 
ATOM     10  C   UNL     1      18.575  67.323  12.483  0.00  0.00    +0.000 C 
ATOM     11  C   UNL     1      19.543  66.358  12.989  0.00  0.00    +0.000 C 
ATOM     12  C   UNL     1      20.708  66.749  13.828  0.00  0.00    +0.000 C 
ATOM     13  C   UNL     1      21.326  68.200  13.390  0.00  0.00    +0.000 C 
ATOM     14  C   UNL     1      21.958  68.516  14.862  0.00  0.00    +0.000 C 
ATOM     15  C   UNL     1      21.416  67.856  15.929  0.00  0.00    +0.000 C 
ATOM     16  C   UNL     1      23.433  68.267  14.505  0.00  0.00    +0.000 C 
ATOM     17  C   UNL     1      24.147  68.552  15.826  0.00  0.00    +0.000 C 
ATOM     18  C   UNL     1      24.187  70.203  15.931  0.00  0.00    +0.000 C 
ATOM     19  O   UNL     1      24.705  70.177  17.355  0.00  0.00    +0.000 OA
ATOM     20  C   UNL     1      22.607  70.316  16.386  0.00  0.00    +0.000 C 
ATOM     21  C   UNL     1      22.496  71.803  16.727  0.00  0.00    +0.000 C 
ATOM     22  C   UNL     1      22.218  69.639  17.475  0.00  0.00    +0.000 C 
ATOM     23  C   UNL     1      22.065  70.138  14.876  0.00  0.00    +0.000 C 
ATOM     24  C   UNL     1      20.489  70.424  15.240  0.00  0.00    +0.000 C 
ATOM     25  C   UNL     1      20.041  70.359  13.758  0.00  0.00    +0.000 C 
ATOM     26  C   UNL     1      19.873  68.928  13.501  0.00  0.00    +0.000 C 
ATOM     27  C   UNL     1      19.130  68.436  14.702  0.00  0.00    +0.000 C 
ATOM     28  O   UNL     1      17.396  67.582  13.232  0.00  0.00    +0.000 OA
ATOM     29  C   UNL     1      16.243  67.644  12.432  0.00  0.00    +0.000 C 
ATOM     30  O   UNL     1      15.216  67.068  12.879  0.00  0.00    +0.000 OA
ATOM     31  C   UNL     1      17.753  66.489  11.395  0.00  0.00    +0.000 C 
ATOM     32  C   UNL     1      18.760  66.715  10.075  0.00  0.00    +0.000 C 
ATOM     33  C   UNL     1      19.590  65.381  10.447  0.00  0.00    +0.000 C 
ENDROOT
TORSDOF 0
ENDMDL
MODEL 2
REMARK VINA RESULT:      -8.0      1.838      7.720
REMARK  Name = 
REMARK  0 active torsions:
REMARK  status: ('A' for Active; 'I' for Inactive)
REMARK                            x       y       z     vdW  Elec       q    Type
REMARK                         _______ _______ _______ _____ _____    ______ ____
ROOT
ATOM      1  C   UNL     1      26.126  73.090  14.811  0.00  0.00    +0.000 C 
ATOM      2  C   UNL     1      24.686  73.818  15.037  0.00  0.00    +0.000 C 
ATOM      3  C   UNL     1      24.636  73.555  16.625  0.00  0.00    +0.000 C 
ATOM      4  C   UNL     1      25.015  72.220  17.004  0.00  0.00    +0.000 C 
ATOM      5  C   UNL     1      24.087  71.220  16.543  0.00  0.00    +0.000 C 
ATOM      6  C   UNL     1      24.707  70.242  15.696  0.00  0.00    +0.000 C 
ATOM      7  C   UNL     1      23.868  69.155  15.090  0.00  0.00    +0.000 C 
ATOM      8  C   UNL     1      22.741  69.903  14.426  0.00  0.00    +0.000 C 
ATOM      9  C   UNL     1      23.274  70.322  13.102  0.00  0.00    +0.000 C 
ATOM     10  C   UNL     1      22.139  70.868  15.293  0.00  0.00    +0.000 C 
ATOM     11  C   UNL     1      20.985  71.461  14.630  0.00  0.00    +0.000 C 
ATOM     12  C   UNL     1      20.083  70.686  13.736  0.00  0.00    +0.000 C 
ATOM     13  C   UNL     1      20.893  69.561  12.865  0.00  0.00    +0.000 C 
ATOM     14  C   UNL     1      19.592  68.591  12.675  0.00  0.00    +0.000 C 
ATOM     15  C   UNL     1      18.577  68.724  13.579  0.00  0.00    +0.000 C 
ATOM     16  C   UNL     1      19.318  68.911  11.196  0.00  0.00    +0.000 C 
ATOM     17  C   UNL     1      18.106  68.033  10.886  0.00  0.00    +0.000 C 
ATOM     18  C   UNL     1      18.729  66.511  10.705  0.00  0.00    +0.000 C 
ATOM     19  O   UNL     1      17.356  65.872  10.644  0.00  0.00    +0.000 OA
ATOM     20  C   UNL     1      18.894  66.272  12.327  0.00  0.00    +0.000 C 
ATOM     21  C   UNL     1      19.294  64.797  12.377  0.00  0.00    +0.000 C 
ATOM     22  C   UNL     1      17.805  66.404  13.094  0.00  0.00    +0.000 C 
ATOM     23  C   UNL     1      20.258  67.132  12.406  0.00  0.00    +0.000 C 
ATOM     24  C   UNL     1      20.575  66.781  13.979  0.00  0.00    +0.000 C 
ATOM     25  C   UNL     1      21.935  67.523  13.965  0.00  0.00    +0.000 C 
ATOM     26  C   UNL     1      21.577  68.924  14.199  0.00  0.00    +0.000 C 
ATOM     27  C   UNL     1      20.585  68.854  15.316  0.00  0.00    +0.000 C 
ATOM     28  O   UNL     1      21.995  70.351  16.609  0.00  0.00    +0.000 OA
ATOM     29  C   UNL     1      23.059  70.704  17.454  0.00  0.00    +0.000 C 
ATOM     30  O   UNL     1      22.755  71.061  18.623  0.00  0.00    +0.000 OA
ATOM     31  C   UNL     1      22.949  72.136  15.834  0.00  0.00    +0.000 C 
ATOM     32  C   UNL     1      23.841  72.484  14.458  0.00  0.00    +0.000 C 
ATOM     33  C   UNL     1      22.681  73.472  13.925  0.00  0.00    +0.000 C 
ENDROOT
TORSDOF 0
ENDMDL
MODEL 3
REMARK VINA RESULT:      -7.8     34.056     37.656
REMARK  Name = 
REMARK  0 active torsions:
REMARK  status: ('A' for Active; 'I' for Inactive)
REMARK                            x       y       z     vdW  Elec       q    Type
REMARK                         _______ _______ _______ _____ _____    ______ ____
ROOT
ATOM      1  C   UNL     1      29.482  48.888 -14.895  0.00  0.00    +0.000 C 
ATOM      2  C   UNL     1      29.238  50.447 -14.488  0.00  0.00    +0.000 C 
ATOM      3  C   UNL     1      27.638  50.316 -14.359  0.00  0.00    +0.000 C 
ATOM      4  C   UNL     1      27.027  49.583 -15.436  0.00  0.00    +0.000 C 
ATOM      5  C   UNL     1      27.135  50.254 -16.704  0.00  0.00    +0.000 C 
ATOM      6  C   UNL     1      27.819  49.467 -17.690  0.00  0.00    +0.000 C 
ATOM      7  C   UNL     1      28.060  50.040 -19.055  0.00  0.00    +0.000 C 
ATOM      8  C   UNL     1      28.721  51.364 -18.774  0.00  0.00    +0.000 C 
ATOM      9  C   UNL     1      30.162  51.051 -18.579  0.00  0.00    +0.000 C 
ATOM     10  C   UNL     1      28.016  52.131 -17.793  0.00  0.00    +0.000 C 
ATOM     11  C   UNL     1      28.639  53.442 -17.664  0.00  0.00    +0.000 C 
ATOM     12  C   UNL     1      29.218  54.176 -18.821  0.00  0.00    +0.000 C 
ATOM     13  C   UNL     1      29.918  53.169 -19.905  0.00  0.00    +0.000 C 
ATOM     14  C   UNL     1      29.722  54.189 -21.167  0.00  0.00    +0.000 C 
ATOM     15  C   UNL     1      28.746  55.139 -21.056  0.00  0.00    +0.000 C 
ATOM     16  C   UNL     1      31.187  54.639 -21.290  0.00  0.00    +0.000 C 
ATOM     17  C   UNL     1      31.139  55.605 -22.473  0.00  0.00    +0.000 C 
ATOM     18  C   UNL     1      31.061  54.628 -23.806  0.00  0.00    +0.000 C 
ATOM     19  O   UNL     1      30.803  55.793 -24.741  0.00  0.00    +0.000 OA
ATOM     20  C   UNL     1      29.461  54.294 -23.597  0.00  0.00    +0.000 C 
ATOM     21  C   UNL     1      29.140  53.528 -24.881  0.00  0.00    +0.000 C 
ATOM     22  C   UNL     1      28.607  55.324 -23.538  0.00  0.00    +0.000 C 
ATOM     23  C   UNL     1      29.748  53.193 -22.452  0.00  0.00    +0.000 C 
ATOM     24  C   UNL     1      28.190  52.687 -22.325  0.00  0.00    +0.000 C 
ATOM     25  C   UNL     1      28.542  51.566 -21.314  0.00  0.00    +0.000 C 
ATOM     26  C   UNL     1      28.576  52.253 -20.021  0.00  0.00    +0.000 C 
ATOM     27  C   UNL     1      27.353  53.113 -20.044  0.00  0.00    +0.000 C 
ATOM     28  O   UNL     1      26.612  52.046 -17.992  0.00  0.00    +0.000 OA
ATOM     29  C   UNL     1      26.008  51.050 -17.207  0.00  0.00    +0.000 C 
ATOM     30  O   UNL     1      24.917  51.353 -16.655  0.00  0.00    +0.000 OA
ATOM     31  C   UNL     1      27.875  51.636 -16.279  0.00  0.00    +0.000 C 
ATOM     32  C   UNL     1      29.396  50.961 -16.081  0.00  0.00    +0.000 C 
ATOM     33  C   UNL     1      29.979  52.370 -15.549  0.00  0.00    +0.000 C 
ENDROOT
TORSDOF 0
ENDMDL
MODEL 4
REMARK VINA RESULT:      -7.8     36.935     42.058
REMARK  Name = 
REMARK  0 active torsions:
REMARK  status: ('A' for Active; 'I' for Inactive)
REMARK                            x       y       z     vdW  Elec       q    Type
REMARK                         _______ _______ _______ _____ _____    ______ ____
ROOT
ATOM      1  C   UNL     1       8.451  46.593 -13.883  0.00  0.00    +0.000 C 
ATOM      2  C   UNL     1       7.325  46.686 -15.057  0.00  0.00    +0.000 C 
ATOM      3  C   UNL     1       6.066  46.700 -14.053  0.00  0.00    +0.000 C 
ATOM      4  C   UNL     1       6.157  45.727 -12.996  0.00  0.00    +0.000 C 
ATOM      5  C   UNL     1       6.096  44.371 -13.474  0.00  0.00    +0.000 C 
ATOM      6  C   UNL     1       7.259  43.608 -13.120  0.00  0.00    +0.000 C 
ATOM      7  C   UNL     1       7.378  42.186 -13.584  0.00  0.00    +0.000 C 
ATOM      8  C   UNL     1       7.142  42.276 -15.070  0.00  0.00    +0.000 C 
ATOM      9  C   UNL     1       8.459  42.647 -15.655  0.00  0.00    +0.000 C 
ATOM     10  C   UNL     1       5.975  43.037 -15.394  0.00  0.00    +0.000 C 
ATOM     11  C   UNL     1       5.742  42.976 -16.831  0.00  0.00    +0.000 C 
ATOM     12  C   UNL     1       6.013  41.757 -17.641  0.00  0.00    +0.000 C 
ATOM     13  C   UNL     1       7.326  40.939 -17.107  0.00  0.00    +0.000 C 
ATOM     14  C   UNL     1       6.825  39.500 -17.697  0.00  0.00    +0.000 C 
ATOM     15  C   UNL     1       5.486  39.352 -17.927  0.00  0.00    +0.000 C 
ATOM     16  C   UNL     1       7.797  39.422 -18.886  0.00  0.00    +0.000 C 
ATOM     17  C   UNL     1       7.433  38.082 -19.524  0.00  0.00    +0.000 C 
ATOM     18  C   UNL     1       8.137  36.949 -18.546  0.00  0.00    +0.000 C 
ATOM     19  O   UNL     1       7.448  35.798 -19.253  0.00  0.00    +0.000 OA
ATOM     20  C   UNL     1       6.976  37.079 -17.384  0.00  0.00    +0.000 C 
ATOM     21  C   UNL     1       7.358  35.934 -16.444  0.00  0.00    +0.000 C 
ATOM     22  C   UNL     1       5.702  36.876 -17.744  0.00  0.00    +0.000 C 
ATOM     23  C   UNL     1       7.617  38.427 -16.767  0.00  0.00    +0.000 C 
ATOM     24  C   UNL     1       6.599  38.511 -15.481  0.00  0.00    +0.000 C 
ATOM     25  C   UNL     1       7.326  39.736 -14.871  0.00  0.00    +0.000 C 
ATOM     26  C   UNL     1       6.753  40.879 -15.584  0.00  0.00    +0.000 C 
ATOM     27  C   UNL     1       5.284  40.596 -15.586  0.00  0.00    +0.000 C 
ATOM     28  O   UNL     1       4.909  42.737 -14.504  0.00  0.00    +0.000 OA
ATOM     29  C   UNL     1       4.826  43.637 -13.429  0.00  0.00    +0.000 C 
ATOM     30  O   UNL     1       3.672  44.029 -13.111  0.00  0.00    +0.000 OA
ATOM     31  C   UNL     1       5.869  44.598 -15.066  0.00  0.00    +0.000 C 
ATOM     32  C   UNL     1       7.449  45.045 -15.403  0.00  0.00    +0.000 C 
ATOM     33  C   UNL     1       7.059  45.357 -16.938  0.00  0.00    +0.000 C 
ENDROOT
TORSDOF 0
ENDMDL
MODEL 5
REMARK VINA RESULT:      -7.7     14.679     17.896
REMARK  Name = 
REMARK  0 active torsions:
REMARK  status: ('A' for Active; 'I' for Inactive)
REMARK                            x       y       z     vdW  Elec       q    Type
REMARK                         _______ _______ _______ _____ _____    ______ ____
ROOT
ATOM      1  C   UNL     1       0.768  58.013   8.107  0.00  0.00    +0.000 C 
ATOM      2  C   UNL     1       1.563  57.695   9.493  0.00  0.00    +0.000 C 
ATOM      3  C   UNL     1       1.462  59.196  10.068  0.00  0.00    +0.000 C 
ATOM      4  C   UNL     1       1.763  60.212   9.094  0.00  0.00    +0.000 C 
ATOM      5  C   UNL     1       3.136  60.188   8.663  0.00  0.00    +0.000 C 
ATOM      6  C   UNL     1       3.268  59.993   7.248  0.00  0.00    +0.000 C 
ATOM      7  C   UNL     1       4.636  59.896   6.641  0.00  0.00    +0.000 C 
ATOM      8  C   UNL     1       5.315  58.831   7.463  0.00  0.00    +0.000 C 
ATOM      9  C   UNL     1       4.884  57.538   6.865  0.00  0.00    +0.000 C 
ATOM     10  C   UNL     1       5.173  59.051   8.869  0.00  0.00    +0.000 C 
ATOM     11  C   UNL     1       5.954  58.059   9.596  0.00  0.00    +0.000 C 
ATOM     12  C   UNL     1       7.267  57.554   9.112  0.00  0.00    +0.000 C 
ATOM     13  C   UNL     1       7.317  57.430   7.480  0.00  0.00    +0.000 C 
ATOM     14  C   UNL     1       8.941  57.585   7.393  0.00  0.00    +0.000 C 
ATOM     15  C   UNL     1       9.567  58.192   8.446  0.00  0.00    +0.000 C 
ATOM     16  C   UNL     1       9.267  56.115   7.082  0.00  0.00    +0.000 C 
ATOM     17  C   UNL     1      10.790  56.131   6.959  0.00  0.00    +0.000 C 
ATOM     18  C   UNL     1      11.080  56.777   5.464  0.00  0.00    +0.000 C 
ATOM     19  O   UNL     1      12.572  56.877   5.711  0.00  0.00    +0.000 OA
ATOM     20  C   UNL     1      10.779  58.321   5.957  0.00  0.00    +0.000 C 
ATOM     21  C   UNL     1      11.192  59.120   4.720  0.00  0.00    +0.000 C 
ATOM     22  C   UNL     1      11.492  58.801   6.984  0.00  0.00    +0.000 C 
ATOM     23  C   UNL     1       9.178  58.129   5.880  0.00  0.00    +0.000 C 
ATOM     24  C   UNL     1       8.817  59.701   6.190  0.00  0.00    +0.000 C 
ATOM     25  C   UNL     1       7.296  59.485   5.989  0.00  0.00    +0.000 C 
ATOM     26  C   UNL     1       6.836  58.973   7.281  0.00  0.00    +0.000 C 
ATOM     27  C   UNL     1       7.508  59.866   8.275  0.00  0.00    +0.000 C 
ATOM     28  O   UNL     1       5.329  60.427   9.188  0.00  0.00    +0.000 OA
ATOM     29  C   UNL     1       4.105  61.113   9.264  0.00  0.00    +0.000 C 
ATOM     30  O   UNL     1       3.972  61.922  10.220  0.00  0.00    +0.000 OA
ATOM     31  C   UNL     1       3.746  59.002   9.590  0.00  0.00    +0.000 C 
ATOM     32  C   UNL     1       3.060  57.740   8.727  0.00  0.00    +0.000 C 
ATOM     33  C   UNL     1       3.620  56.670   9.798  0.00  0.00    +0.000 C 
ENDROOT
TORSDOF 0
ENDMDL
MODEL 6
REMARK VINA RESULT:      -7.7     20.141     23.831
REMARK  Name = 
REMARK  0 active torsions:
REMARK  status: ('A' for Active; 'I' for Inactive)
REMARK                            x       y       z     vdW  Elec       q    Type
REMARK                         _______ _______ _______ _____ _____    ______ ____
ROOT
ATOM      1  C   UNL     1      32.491  59.510  -6.989  0.00  0.00    +0.000 C 
ATOM      2  C   UNL     1      32.298  57.913  -6.738  0.00  0.00    +0.000 C 
ATOM      3  C   UNL     1      32.125  57.539  -8.295  0.00  0.00    +0.000 C 
ATOM      4  C   UNL     1      31.251  58.430  -9.012  0.00  0.00    +0.000 C 
ATOM      5  C   UNL     1      29.883  58.350  -8.570  0.00  0.00    +0.000 C 
ATOM      6  C   UNL     1      29.382  59.608  -8.098  0.00  0.00    +0.000 C 
ATOM      7  C   UNL     1      27.985  59.689  -7.555  0.00  0.00    +0.000 C 
ATOM      8  C   UNL     1      27.942  58.594  -6.521  0.00  0.00    +0.000 C 
ATOM      9  C   UNL     1      28.526  59.192  -5.290  0.00  0.00    +0.000 C 
ATOM     10  C   UNL     1      28.443  57.350  -7.019  0.00  0.00    +0.000 C 
ATOM     11  C   UNL     1      28.256  56.315  -6.011  0.00  0.00    +0.000 C 
ATOM     12  C   UNL     1      27.068  56.265  -5.116  0.00  0.00    +0.000 C 
ATOM     13  C   UNL     1      26.551  57.760  -4.693  0.00  0.00    +0.000 C 
ATOM     14  C   UNL     1      25.011  57.287  -4.420  0.00  0.00    +0.000 C 
ATOM     15  C   UNL     1      24.595  56.138  -5.032  0.00  0.00    +0.000 C 
ATOM     16  C   UNL     1      25.054  57.338  -2.884  0.00  0.00    +0.000 C 
ATOM     17  C   UNL     1      23.635  56.923  -2.498  0.00  0.00    +0.000 C 
ATOM     18  C   UNL     1      22.717  58.272  -2.772  0.00  0.00    +0.000 C 
ATOM     19  O   UNL     1      21.417  57.529  -2.541  0.00  0.00    +0.000 OA
ATOM     20  C   UNL     1      22.687  58.048  -4.405  0.00  0.00    +0.000 C 
ATOM     21  C   UNL     1      21.693  59.126  -4.840  0.00  0.00    +0.000 C 
ATOM     22  C   UNL     1      22.221  56.882  -4.869  0.00  0.00    +0.000 C 
ATOM     23  C   UNL     1      24.166  58.663  -4.607  0.00  0.00    +0.000 C 
ATOM     24  C   UNL     1      24.126  58.633  -6.249  0.00  0.00    +0.000 C 
ATOM     25  C   UNL     1      25.501  59.334  -6.385  0.00  0.00    +0.000 C 
ATOM     26  C   UNL     1      26.469  58.245  -6.245  0.00  0.00    +0.000 C 
ATOM     27  C   UNL     1      25.908  57.158  -7.106  0.00  0.00    +0.000 C 
ATOM     28  O   UNL     1      27.995  57.116  -8.347  0.00  0.00    +0.000 OA
ATOM     29  C   UNL     1      28.922  57.530  -9.317  0.00  0.00    +0.000 C 
ATOM     30  O   UNL     1      29.101  56.753 -10.292  0.00  0.00    +0.000 OA
ATOM     31  C   UNL     1      29.970  57.171  -7.456  0.00  0.00    +0.000 C 
ATOM     32  C   UNL     1      30.694  58.109  -6.271  0.00  0.00    +0.000 C 
ATOM     33  C   UNL     1      30.837  56.823  -5.305  0.00  0.00    +0.000 C 
ENDROOT
TORSDOF 0
ENDMDL
MODEL 7
REMARK VINA RESULT:      -7.7     26.940     29.083
REMARK  Name = 
REMARK  0 active torsions:
REMARK  status: ('A' for Active; 'I' for Inactive)
REMARK                            x       y       z     vdW  Elec       q    Type
REMARK                         _______ _______ _______ _____ _____    ______ ____
ROOT
ATOM      1  C   UNL     1      25.306  45.755  15.504  0.00  0.00    +0.000 C 
ATOM      2  C   UNL     1      24.201  45.508  16.675  0.00  0.00    +0.000 C 
ATOM      3  C   UNL     1      25.010  46.311  17.813  0.00  0.00    +0.000 C 
ATOM      4  C   UNL     1      26.416  46.004  17.851  0.00  0.00    +0.000 C 
ATOM      5  C   UNL     1      26.684  44.647  18.248  0.00  0.00    +0.000 C 
ATOM      6  C   UNL     1      27.420  43.918  17.255  0.00  0.00    +0.000 C 
ATOM      7  C   UNL     1      27.741  42.471  17.490  0.00  0.00    +0.000 C 
ATOM      8  C   UNL     1      26.405  41.859  17.823  0.00  0.00    +0.000 C 
ATOM      9  C   UNL     1      25.766  41.573  16.510  0.00  0.00    +0.000 C 
ATOM     10  C   UNL     1      25.694  42.603  18.817  0.00  0.00    +0.000 C 
ATOM     11  C   UNL     1      24.475  41.889  19.176  0.00  0.00    +0.000 C 
ATOM     12  C   UNL     1      24.401  40.405  19.248  0.00  0.00    +0.000 C 
ATOM     13  C   UNL     1      25.327  39.685  18.106  0.00  0.00    +0.000 C 
ATOM     14  C   UNL     1      25.523  38.304  18.958  0.00  0.00    +0.000 C 
ATOM     15  C   UNL     1      25.345  38.375  20.311  0.00  0.00    +0.000 C 
ATOM     16  C   UNL     1      24.576  37.421  18.129  0.00  0.00    +0.000 C 
ATOM     17  C   UNL     1      24.685  36.068  18.830  0.00  0.00    +0.000 C 
ATOM     18  C   UNL     1      26.128  35.446  18.314  0.00  0.00    +0.000 C 
ATOM     19  O   UNL     1      26.070  34.291  19.294  0.00  0.00    +0.000 OA
ATOM     20  C   UNL     1      27.019  36.402  19.318  0.00  0.00    +0.000 C 
ATOM     21  C   UNL     1      28.421  35.826  19.120  0.00  0.00    +0.000 C 
ATOM     22  C   UNL     1      26.759  36.348  20.630  0.00  0.00    +0.000 C 
ATOM     23  C   UNL     1      26.898  37.687  18.348  0.00  0.00    +0.000 C 
ATOM     24  C   UNL     1      27.924  38.635  19.212  0.00  0.00    +0.000 C 
ATOM     25  C   UNL     1      27.863  39.794  18.186  0.00  0.00    +0.000 C 
ATOM     26  C   UNL     1      26.649  40.526  18.551  0.00  0.00    +0.000 C 
ATOM     27  C   UNL     1      26.730  40.628  20.041  0.00  0.00    +0.000 C 
ATOM     28  O   UNL     1      26.569  43.043  19.846  0.00  0.00    +0.000 OA
ATOM     29  C   UNL     1      27.040  44.350  19.640  0.00  0.00    +0.000 C 
ATOM     30  O   UNL     1      27.071  45.103  20.649  0.00  0.00    +0.000 OA
ATOM     31  C   UNL     1      25.186  44.095  18.550  0.00  0.00    +0.000 C 
ATOM     32  C   UNL     1      24.734  43.936  16.944  0.00  0.00    +0.000 C 
ATOM     33  C   UNL     1      23.237  43.521  17.381  0.00  0.00    +0.000 C 
ENDROOT
TORSDOF 0
ENDMDL
MODEL 8
REMARK VINA RESULT:      -7.6     15.393     18.175
REMARK  Name = 
REMARK  0 active torsions:
REMARK  status: ('A' for Active; 'I' for Inactive)
REMARK                            x       y       z     vdW  Elec       q    Type
REMARK                         _______ _______ _______ _____ _____    ______ ____
ROOT
ATOM      1  C   UNL     1      11.064  56.482   4.148  0.00  0.00    +0.000 C 
ATOM      2  C   UNL     1      11.515  57.701   5.131  0.00  0.00    +0.000 C 
ATOM      3  C   UNL     1      11.975  56.749   6.345  0.00  0.00    +0.000 C 
ATOM      4  C   UNL     1      11.049  55.685   6.631  0.00  0.00    +0.000 C 
ATOM      5  C   UNL     1       9.786  56.159   7.133  0.00  0.00    +0.000 C 
ATOM      6  C   UNL     1       8.680  55.755   6.315  0.00  0.00    +0.000 C 
ATOM      7  C   UNL     1       7.294  56.207   6.671  0.00  0.00    +0.000 C 
ATOM      8  C   UNL     1       7.432  57.701   6.808  0.00  0.00    +0.000 C 
ATOM      9  C   UNL     1       7.321  58.234   5.423  0.00  0.00    +0.000 C 
ATOM     10  C   UNL     1       8.539  58.077   7.632  0.00  0.00    +0.000 C 
ATOM     11  C   UNL     1       8.535  59.522   7.819  0.00  0.00    +0.000 C 
ATOM     12  C   UNL     1       7.283  60.314   7.951  0.00  0.00    +0.000 C 
ATOM     13  C   UNL     1       6.076  59.724   7.017  0.00  0.00    +0.000 C 
ATOM     14  C   UNL     1       4.884  60.327   7.956  0.00  0.00    +0.000 C 
ATOM     15  C   UNL     1       5.197  60.611   9.256  0.00  0.00    +0.000 C 
ATOM     16  C   UNL     1       4.457  61.475   7.027  0.00  0.00    +0.000 C 
ATOM     17  C   UNL     1       3.311  62.122   7.803  0.00  0.00    +0.000 C 
ATOM     18  C   UNL     1       2.023  61.111   7.565  0.00  0.00    +0.000 C 
ATOM     19  O   UNL     1       1.164  61.841   8.578  0.00  0.00    +0.000 OA
ATOM     20  C   UNL     1       2.562  59.998   8.653  0.00  0.00    +0.000 C 
ATOM     21  C   UNL     1       1.373  59.039   8.720  0.00  0.00    +0.000 C 
ATOM     22  C   UNL     1       2.799  60.408   9.906  0.00  0.00    +0.000 C 
ATOM     23  C   UNL     1       3.622  59.362   7.614  0.00  0.00    +0.000 C 
ATOM     24  C   UNL     1       4.071  58.118   8.589  0.00  0.00    +0.000 C 
ATOM     25  C   UNL     1       4.985  57.484   7.510  0.00  0.00    +0.000 C 
ATOM     26  C   UNL     1       6.243  58.225   7.631  0.00  0.00    +0.000 C 
ATOM     27  C   UNL     1       6.477  58.286   9.107  0.00  0.00    +0.000 C 
ATOM     28  O   UNL     1       8.637  57.230   8.769  0.00  0.00    +0.000 OA
ATOM     29  C   UNL     1       9.531  56.163   8.579  0.00  0.00    +0.000 C 
ATOM     30  O   UNL     1      10.299  55.894   9.540  0.00  0.00    +0.000 OA
ATOM     31  C   UNL     1      10.048  57.760   7.211  0.00  0.00    +0.000 C 
ATOM     32  C   UNL     1       9.924  58.034   5.562  0.00  0.00    +0.000 C 
ATOM     33  C   UNL     1      10.323  59.585   5.765  0.00  0.00    +0.000 C 
ENDROOT
TORSDOF 0
ENDMDL
MODEL 9
REMARK VINA RESULT:      -7.6      1.556      7.584
REMARK  Name = 
REMARK  0 active torsions:
REMARK  status: ('A' for Active; 'I' for Inactive)
REMARK                            x       y       z     vdW  Elec       q    Type
REMARK                         _______ _______ _______ _____ _____    ______ ____
ROOT
ATOM      1  C   UNL     1      22.705  70.311  19.374  0.00  0.00    +0.000 C 
ATOM      2  C   UNL     1      23.472  69.026  18.731  0.00  0.00    +0.000 C 
ATOM      3  C   UNL     1      24.656  69.884  18.057  0.00  0.00    +0.000 C 
ATOM      4  C   UNL     1      24.200  71.067  17.376  0.00  0.00    +0.000 C 
ATOM      5  C   UNL     1      23.396  70.775  16.219  0.00  0.00    +0.000 C 
ATOM      6  C   UNL     1      22.083  71.347  16.301  0.00  0.00    +0.000 C 
ATOM      7  C   UNL     1      21.099  71.097  15.196  0.00  0.00    +0.000 C 
ATOM      8  C   UNL     1      21.097  69.596  15.054  0.00  0.00    +0.000 C 
ATOM      9  C   UNL     1      20.155  69.105  16.095  0.00  0.00    +0.000 C 
ATOM     10  C   UNL     1      22.417  69.053  14.971  0.00  0.00    +0.000 C 
ATOM     11  C   UNL     1      22.336  67.621  14.712  0.00  0.00    +0.000 C 
ATOM     12  C   UNL     1      21.290  67.017  13.842  0.00  0.00    +0.000 C 
ATOM     13  C   UNL     1      19.853  67.791  13.976  0.00  0.00    +0.000 C 
ATOM     14  C   UNL     1      19.338  67.354  12.489  0.00  0.00    +0.000 C 
ATOM     15  C   UNL     1      20.293  67.010  11.574  0.00  0.00    +0.000 C 
ATOM     16  C   UNL     1      18.317  66.293  12.934  0.00  0.00    +0.000 C 
ATOM     17  C   UNL     1      17.740  65.810  11.604  0.00  0.00    +0.000 C 
ATOM     18  C   UNL     1      16.686  67.000  11.148  0.00  0.00    +0.000 C 
ATOM     19  O   UNL     1      16.467  66.390   9.778  0.00  0.00    +0.000 OA
ATOM     20  C   UNL     1      17.884  68.008  10.634  0.00  0.00    +0.000 C 
ATOM     21  C   UNL     1      17.076  69.130   9.979  0.00  0.00    +0.000 C 
ATOM     22  C   UNL     1      18.734  67.551   9.705  0.00  0.00    +0.000 C 
ATOM     23  C   UNL     1      18.239  68.498  12.131  0.00  0.00    +0.000 C 
ATOM     24  C   UNL     1      19.316  69.649  11.669  0.00  0.00    +0.000 C 
ATOM     25  C   UNL     1      19.530  70.158  13.116  0.00  0.00    +0.000 C 
ATOM     26  C   UNL     1      20.529  69.241  13.670  0.00  0.00    +0.000 C 
ATOM     27  C   UNL     1      21.547  69.126  12.581  0.00  0.00    +0.000 C 
ATOM     28  O   UNL     1      23.250  69.860  14.150  0.00  0.00    +0.000 OA
ATOM     29  C   UNL     1      24.006  70.788  14.884  0.00  0.00    +0.000 C 
ATOM     30  O   UNL     1      25.210  70.930  14.542  0.00  0.00    +0.000 OA
ATOM     31  C   UNL     1      23.449  69.152  16.189  0.00  0.00    +0.000 C 
ATOM     32  C   UNL     1      22.379  68.921  17.458  0.00  0.00    +0.000 C 
ATOM     33  C   UNL     1      22.620  67.326  17.404  0.00  0.00    +0.000 C 
ENDROOT
TORSDOF 0
ENDMDL
MODEL 10
REMARK VINA RESULT:      -7.5     32.878     36.834
REMARK  Name = 
REMARK  0 active torsions:
REMARK  status: ('A' for Active; 'I' for Inactive)
REMARK                            x       y       z     vdW  Elec       q    Type
REMARK                         _______ _______ _______ _____ _____    ______ ____
ROOT
ATOM      1  C   UNL     1      28.413  50.436 -12.259  0.00  0.00    +0.000 C 
ATOM      2  C   UNL     1      26.999  50.687 -13.028  0.00  0.00    +0.000 C 
ATOM      3  C   UNL     1      26.752  49.138 -13.391  0.00  0.00    +0.000 C 
ATOM      4  C   UNL     1      27.921  48.466 -13.895  0.00  0.00    +0.000 C 
ATOM      5  C   UNL     1      28.350  48.969 -15.173  0.00  0.00    +0.000 C 
ATOM      6  C   UNL     1      29.694  49.470 -15.146  0.00  0.00    +0.000 C 
ATOM      7  C   UNL     1      30.281  50.076 -16.387  0.00  0.00    +0.000 C 
ATOM      8  C   UNL     1      29.259  51.106 -16.797  0.00  0.00    +0.000 C 
ATOM      9  C   UNL     1      29.568  52.311 -15.982  0.00  0.00    +0.000 C 
ATOM     10  C   UNL     1      27.930  50.579 -16.820  0.00  0.00    +0.000 C 
ATOM     11  C   UNL     1      27.019  51.589 -17.342  0.00  0.00    +0.000 C 
ATOM     12  C   UNL     1      27.399  52.537 -18.424  0.00  0.00    +0.000 C 
ATOM     13  C   UNL     1      28.968  52.991 -18.324  0.00  0.00    +0.000 C 
ATOM     14  C   UNL     1      29.102  53.330 -19.917  0.00  0.00    +0.000 C 
ATOM     15  C   UNL     1      28.207  52.732 -20.759  0.00  0.00    +0.000 C 
ATOM     16  C   UNL     1      29.100  54.863 -19.796  0.00  0.00    +0.000 C 
ATOM     17  C   UNL     1      29.240  55.311 -21.250  0.00  0.00    +0.000 C 
ATOM     18  C   UNL     1      30.840  55.086 -21.605  0.00  0.00    +0.000 C 
ATOM     19  O   UNL     1      30.634  55.372 -23.078  0.00  0.00    +0.000 OA
ATOM     20  C   UNL     1      30.679  53.455 -21.782  0.00  0.00    +0.000 C 
ATOM     21  C   UNL     1      32.060  53.071 -22.314  0.00  0.00    +0.000 C 
ATOM     22  C   UNL     1      29.783  53.006 -22.670  0.00  0.00    +0.000 C 
ATOM     23  C   UNL     1      30.698  53.189 -20.190  0.00  0.00    +0.000 C 
ATOM     24  C   UNL     1      30.722  51.551 -20.304  0.00  0.00    +0.000 C 
ATOM     25  C   UNL     1      30.858  51.356 -18.773  0.00  0.00    +0.000 C 
ATOM     26  C   UNL     1      29.482  51.446 -18.280  0.00  0.00    +0.000 C 
ATOM     27  C   UNL     1      28.705  50.606 -19.243  0.00  0.00    +0.000 C 
ATOM     28  O   UNL     1      27.909  49.272 -17.376  0.00  0.00    +0.000 OA
ATOM     29  C   UNL     1      27.967  48.263 -16.401  0.00  0.00    +0.000 C 
ATOM     30  O   UNL     1      27.201  47.276 -16.566  0.00  0.00    +0.000 OA
ATOM     31  C   UNL     1      27.201  50.072 -15.490  0.00  0.00    +0.000 C 
ATOM     32  C   UNL     1      27.772  51.228 -14.421  0.00  0.00    +0.000 C 
ATOM     33  C   UNL     1      26.506  52.179 -14.733  0.00  0.00    +0.000 C 
ENDROOT
TORSDOF 0
ENDMDL
