MODEL 1
REMARK VINA RESULT:      -7.7      0.000      0.000
REMARK  Name = 
REMARK  3 active torsions:
REMARK  status: ('A' for Active; 'I' for Inactive)
REMARK    1  A    between atoms: C_2  and  O_4
REMARK    2  A    between atoms: O_4  and  C_5
REMARK    3  A    between atoms: C_26  and  C_27
REMARK                            x       y       z     vdW  Elec       q    Type
REMARK                         _______ _______ _______ _____ _____    ______ ____
ROOT
ATOM      5  C   UNL     1      27.277  51.086 -16.104  0.00  0.00    +0.000 C 
ATOM      6  C   UNL     1      27.587  52.706 -16.114  0.00  0.00    +0.000 C 
ATOM      7  C   UNL     1      28.633  52.603 -17.226  0.00  0.00    +0.000 C 
ATOM      8  C   UNL     1      27.987  51.892 -18.421  0.00  0.00    +0.000 C 
ATOM      9  C   UNL     1      28.244  50.550 -18.611  0.00  0.00    +0.000 C 
ATOM     10  C   UNL     1      26.459  52.366 -18.191  0.00  0.00    +0.000 C 
ATOM     11  C   UNL     1      25.853  51.605 -19.507  0.00  0.00    +0.000 C 
ATOM     12  C   UNL     1      26.163  52.772 -20.445  0.00  0.00    +0.000 C 
ATOM     13  C   UNL     1      27.571  52.479 -20.776  0.00  0.00    +0.000 C 
ATOM     14  C   UNL     1      27.700  51.040 -21.103  0.00  0.00    +0.000 C 
ATOM     15  C   UNL     1      28.547  52.910 -19.559  0.00  0.00    +0.000 C 
ATOM     16  C   UNL     1      29.755  51.907 -20.025  0.00  0.00    +0.000 C 
ATOM     17  C   UNL     1      30.089  52.212 -21.428  0.00  0.00    +0.000 C 
ATOM     18  C   UNL     1      29.438  53.060 -22.136  0.00  0.00    +0.000 C 
ATOM     19  C   UNL     1      29.553  53.099 -23.728  0.00  0.00    +0.000 C 
ATOM     20  C   UNL     1      31.187  52.685 -23.823  0.00  0.00    +0.000 C 
ATOM     21  C   UNL     1      31.963  54.079 -23.903  0.00  0.00    +0.000 C 
ATOM     22  C   UNL     1      31.157  52.552 -25.517  0.00  0.00    +0.000 C 
ATOM     23  C   UNL     1      30.142  51.283 -25.428  0.00  0.00    +0.000 C 
ATOM     24  C   UNL     1      29.972  53.572 -25.908  0.00  0.00    +0.000 C 
ATOM     25  C   UNL     1      29.987  54.853 -25.212  0.00  0.00    +0.000 C 
ATOM     26  C   UNL     1      29.604  54.705 -23.797  0.00  0.00    +0.000 C 
ATOM     30  C   UNL     1      28.100  54.961 -23.581  0.00  0.00    +0.000 C 
ATOM     31  C   UNL     1      27.723  54.668 -22.122  0.00  0.00    +0.000 C 
ATOM     32  C   UNL     1      27.956  53.224 -21.967  0.00  0.00    +0.000 C 
ATOM     33  C   UNL     1      27.130  52.539 -23.052  0.00  0.00    +0.000 C 
ATOM     34  C   UNL     1      26.044  51.185 -17.167  0.00  0.00    +0.000 C 
ATOM     35  C   UNL     1      24.835  51.751 -16.545  0.00  0.00    +0.000 C 
ATOM     36  C   UNL     1      25.862  49.892 -17.804  0.00  0.00    +0.000 C 
ENDROOT
BRANCH  26  27
ATOM     27  C   UNL     1      30.176  55.423 -22.766  0.00  0.00    +0.000 C 
ATOM     28  O   UNL     1      30.195  56.672 -23.021  0.00  0.00    +0.000 OA
ATOM     29  O   UNL     1      30.672  55.182 -21.522  0.00  0.00    +0.000 OA
ENDBRANCH  26  27
BRANCH   5   4
ATOM      4  O   UNL     1      26.385  51.205 -14.857  0.00  0.00    +0.000 OA
BRANCH   4   2
ATOM      1  C   UNL     1      27.139  49.222 -13.954  0.00  0.00    +0.000 C 
ATOM      2  C   UNL     1      26.719  50.448 -13.768  0.00  0.00    +0.000 C 
ATOM      3  O   UNL     1      26.305  50.788 -12.625  0.00  0.00    +0.000 OA
ENDBRANCH   4   2
ENDBRANCH   5   4
TORSDOF 3
ENDMDL
MODEL 2
REMARK VINA RESULT:      -7.4     27.552     29.487
REMARK  Name = 
REMARK  3 active torsions:
REMARK  status: ('A' for Active; 'I' for Inactive)
REMARK    1  A    between atoms: C_2  and  O_4
REMARK    2  A    between atoms: O_4  and  C_5
REMARK    3  A    between atoms: C_26  and  C_27
REMARK                            x       y       z     vdW  Elec       q    Type
REMARK                         _______ _______ _______ _____ _____    ______ ____
ROOT
ATOM      5  C   UNL     1      27.964  80.479 -11.860  0.00  0.00    +0.000 C 
ATOM      6  C   UNL     1      28.397  78.936 -12.246  0.00  0.00    +0.000 C 
ATOM      7  C   UNL     1      29.875  79.286 -12.428  0.00  0.00    +0.000 C 
ATOM      8  C   UNL     1      30.362  79.969 -11.144  0.00  0.00    +0.000 C 
ATOM      9  C   UNL     1      30.456  81.344 -11.121  0.00  0.00    +0.000 C 
ATOM     10  C   UNL     1      29.377  79.240 -10.090  0.00  0.00    +0.000 C 
ATOM     11  C   UNL     1      29.976  79.987  -8.763  0.00  0.00    +0.000 C 
ATOM     12  C   UNL     1      31.088  78.956  -8.566  0.00  0.00    +0.000 C 
ATOM     13  C   UNL     1      32.114  79.495  -9.481  0.00  0.00    +0.000 C 
ATOM     14  C   UNL     1      32.232  80.955  -9.265  0.00  0.00    +0.000 C 
ATOM     15  C   UNL     1      31.755  79.140 -11.018  0.00  0.00    +0.000 C 
ATOM     16  C   UNL     1      32.667  80.355 -11.628  0.00  0.00    +0.000 C 
ATOM     17  C   UNL     1      34.036  80.210 -11.102  0.00  0.00    +0.000 C 
ATOM     18  C   UNL     1      34.366  79.322 -10.238  0.00  0.00    +0.000 C 
ATOM     19  C   UNL     1      35.722  79.418  -9.400  0.00  0.00    +0.000 C 
ATOM     20  C   UNL     1      36.668  80.094 -10.623  0.00  0.00    +0.000 C 
ATOM     21  C   UNL     1      37.388  78.854 -11.324  0.00  0.00    +0.000 C 
ATOM     22  C   UNL     1      37.998  80.344  -9.594  0.00  0.00    +0.000 C 
ATOM     23  C   UNL     1      37.152  81.423  -8.717  0.00  0.00    +0.000 C 
ATOM     24  C   UNL     1      37.792  79.177  -8.501  0.00  0.00    +0.000 C 
ATOM     25  C   UNL     1      37.435  77.869  -9.035  0.00  0.00    +0.000 C 
ATOM     26  C   UNL     1      36.052  77.850  -9.542  0.00  0.00    +0.000 C 
ATOM     30  C   UNL     1      35.058  77.340  -8.481  0.00  0.00    +0.000 C 
ATOM     31  C   UNL     1      33.621  77.462  -9.007  0.00  0.00    +0.000 C 
ATOM     32  C   UNL     1      33.409  78.909  -9.157  0.00  0.00    +0.000 C 
ATOM     33  C   UNL     1      33.708  79.530  -7.796  0.00  0.00    +0.000 C 
ATOM     34  C   UNL     1      28.134  80.262 -10.252  0.00  0.00    +0.000 C 
ATOM     35  C   UNL     1      27.028  79.464  -9.693  0.00  0.00    +0.000 C 
ATOM     36  C   UNL     1      28.346  81.551  -9.618  0.00  0.00    +0.000 C 
ENDROOT
BRANCH  26  27
ATOM     27  C   UNL     1      35.656  77.160 -10.671  0.00  0.00    +0.000 C 
ATOM     28  O   UNL     1      35.826  75.904 -10.534  0.00  0.00    +0.000 OA
ATOM     29  O   UNL     1      35.076  77.436 -11.871  0.00  0.00    +0.000 OA
ENDBRANCH  26  27
BRANCH   5   4
ATOM      4  O   UNL     1      26.467  80.129 -11.882  0.00  0.00    +0.000 OA
BRANCH   4   2
ATOM      1  C   UNL     1      25.727  81.260 -13.750  0.00  0.00    +0.000 C 
ATOM      2  C   UNL     1      25.837  80.132 -13.097  0.00  0.00    +0.000 C 
ATOM      3  O   UNL     1      25.084  79.167 -13.408  0.00  0.00    +0.000 OA
ENDBRANCH   4   2
ENDBRANCH   5   4
TORSDOF 3
ENDMDL
MODEL 3
REMARK VINA RESULT:      -7.3     21.567     25.660
REMARK  Name = 
REMARK  3 active torsions:
REMARK  status: ('A' for Active; 'I' for Inactive)
REMARK    1  A    between atoms: C_2  and  O_4
REMARK    2  A    between atoms: O_4  and  C_5
REMARK    3  A    between atoms: C_26  and  C_27
REMARK                            x       y       z     vdW  Elec       q    Type
REMARK                         _______ _______ _______ _____ _____    ______ ____
ROOT
ATOM      5  C   UNL     1       7.150  45.211 -13.612  0.00  0.00    +0.000 C 
ATOM      6  C   UNL     1       8.076  43.993 -12.996  0.00  0.00    +0.000 C 
ATOM      7  C   UNL     1       7.055  42.906 -13.339  0.00  0.00    +0.000 C 
ATOM      8  C   UNL     1       6.738  43.007 -14.836  0.00  0.00    +0.000 C 
ATOM      9  C   UNL     1       5.581  43.649 -15.225  0.00  0.00    +0.000 C 
ATOM     10  C   UNL     1       8.158  43.587 -15.347  0.00  0.00    +0.000 C 
ATOM     11  C   UNL     1       7.753  43.633 -16.932  0.00  0.00    +0.000 C 
ATOM     12  C   UNL     1       8.162  42.180 -17.178  0.00  0.00    +0.000 C 
ATOM     13  C   UNL     1       6.929  41.484 -16.760  0.00  0.00    +0.000 C 
ATOM     14  C   UNL     1       5.761  42.173 -17.355  0.00  0.00    +0.000 C 
ATOM     15  C   UNL     1       6.830  41.414 -15.146  0.00  0.00    +0.000 C 
ATOM     16  C   UNL     1       5.206  41.204 -15.144  0.00  0.00    +0.000 C 
ATOM     17  C   UNL     1       4.893  40.037 -15.989  0.00  0.00    +0.000 C 
ATOM     18  C   UNL     1       5.779  39.400 -16.663  0.00  0.00    +0.000 C 
ATOM     19  C   UNL     1       5.387  38.408 -17.851  0.00  0.00    +0.000 C 
ATOM     20  C   UNL     1       3.968  37.813 -17.158  0.00  0.00    +0.000 C 
ATOM     21  C   UNL     1       4.403  36.472 -16.408  0.00  0.00    +0.000 C 
ATOM     22  C   UNL     1       3.531  36.946 -18.553  0.00  0.00    +0.000 C 
ATOM     23  C   UNL     1       3.348  38.330 -19.390  0.00  0.00    +0.000 C 
ATOM     24  C   UNL     1       4.969  36.644 -19.216  0.00  0.00    +0.000 C 
ATOM     25  C   UNL     1       6.007  36.198 -18.296  0.00  0.00    +0.000 C 
ATOM     26  C   UNL     1       6.467  37.294 -17.425  0.00  0.00    +0.000 C 
ATOM     30  C   UNL     1       7.714  37.996 -17.996  0.00  0.00    +0.000 C 
ATOM     31  C   UNL     1       8.076  39.208 -17.127  0.00  0.00    +0.000 C 
ATOM     32  C   UNL     1       6.937  40.125 -17.285  0.00  0.00    +0.000 C 
ATOM     33  C   UNL     1       6.784  40.362 -18.785  0.00  0.00    +0.000 C 
ATOM     34  C   UNL     1       7.829  45.150 -15.094  0.00  0.00    +0.000 C 
ATOM     35  C   UNL     1       9.181  45.735 -15.097  0.00  0.00    +0.000 C 
ATOM     36  C   UNL     1       6.908  45.722 -16.062  0.00  0.00    +0.000 C 
ENDROOT
BRANCH  26  27
ATOM     27  C   UNL     1       6.803  37.130 -16.096  0.00  0.00    +0.000 C 
ATOM     28  O   UNL     1       7.671  36.208 -15.944  0.00  0.00    +0.000 OA
ATOM     29  O   UNL     1       6.516  37.717 -14.902  0.00  0.00    +0.000 OA
ENDBRANCH  26  27
BRANCH   5   4
ATOM      4  O   UNL     1       8.106  46.289 -13.074  0.00  0.00    +0.000 OA
BRANCH   4   2
ATOM      1  C   UNL     1       6.787  47.128 -11.380  0.00  0.00    +0.000 C 
ATOM      2  C   UNL     1       7.552  47.353 -12.418  0.00  0.00    +0.000 C 
ATOM      3  O   UNL     1       7.487  48.473 -12.996  0.00  0.00    +0.000 OA
ENDBRANCH   4   2
ENDBRANCH   5   4
TORSDOF 3
ENDMDL
MODEL 4
REMARK VINA RESULT:      -7.2     34.334     38.624
REMARK  Name = 
REMARK  3 active torsions:
REMARK  status: ('A' for Active; 'I' for Inactive)
REMARK    1  A    between atoms: C_2  and  O_4
REMARK    2  A    between atoms: O_4  and  C_5
REMARK    3  A    between atoms: C_26  and  C_27
REMARK                            x       y       z     vdW  Elec       q    Type
REMARK                         _______ _______ _______ _____ _____    ______ ____
ROOT
ATOM      5  C   UNL     1      16.914  67.909  10.535  0.00  0.00    +0.000 C 
ATOM      6  C   UNL     1      17.464  69.432  10.221  0.00  0.00    +0.000 C 
ATOM      7  C   UNL     1      17.910  69.679  11.664  0.00  0.00    +0.000 C 
ATOM      8  C   UNL     1      18.855  68.541  12.070  0.00  0.00    +0.000 C 
ATOM      9  C   UNL     1      18.355  67.505  12.829  0.00  0.00    +0.000 C 
ATOM     10  C   UNL     1      19.477  68.209  10.615  0.00  0.00    +0.000 C 
ATOM     11  C   UNL     1      20.484  67.028  11.134  0.00  0.00    +0.000 C 
ATOM     12  C   UNL     1      21.606  68.006  11.484  0.00  0.00    +0.000 C 
ATOM     13  C   UNL     1      21.189  68.414  12.841  0.00  0.00    +0.000 C 
ATOM     14  C   UNL     1      20.814  67.206  13.612  0.00  0.00    +0.000 C 
ATOM     15  C   UNL     1      19.978  69.484  12.771  0.00  0.00    +0.000 C 
ATOM     16  C   UNL     1      19.461  69.166  14.292  0.00  0.00    +0.000 C 
ATOM     17  C   UNL     1      20.600  69.347  15.211  0.00  0.00    +0.000 C 
ATOM     18  C   UNL     1      21.790  69.610  14.811  0.00  0.00    +0.000 C 
ATOM     19  C   UNL     1      23.062  69.420  15.758  0.00  0.00    +0.000 C 
ATOM     20  C   UNL     1      22.312  69.881  17.198  0.00  0.00    +0.000 C 
ATOM     21  C   UNL     1      22.638  71.436  17.356  0.00  0.00    +0.000 C 
ATOM     22  C   UNL     1      23.655  69.456  18.150  0.00  0.00    +0.000 C 
ATOM     23  C   UNL     1      23.469  67.886  17.761  0.00  0.00    +0.000 C 
ATOM     24  C   UNL     1      24.871  69.649  17.109  0.00  0.00    +0.000 C 
ATOM     25  C   UNL     1      24.822  70.861  16.300  0.00  0.00    +0.000 C 
ATOM     26  C   UNL     1      23.758  70.790  15.283  0.00  0.00    +0.000 C 
ATOM     30  C   UNL     1      24.292  70.284  13.929  0.00  0.00    +0.000 C 
ATOM     31  C   UNL     1      23.129  70.103  12.943  0.00  0.00    +0.000 C 
ATOM     32  C   UNL     1      22.316  69.028  13.531  0.00  0.00    +0.000 C 
ATOM     33  C   UNL     1      23.253  67.841  13.730  0.00  0.00    +0.000 C 
ATOM     34  C   UNL     1      18.320  67.182  10.143  0.00  0.00    +0.000 C 
ATOM     35  C   UNL     1      18.531  67.158   8.685  0.00  0.00    +0.000 C 
ATOM     36  C   UNL     1      18.383  65.886  10.796  0.00  0.00    +0.000 C 
ENDROOT
BRANCH  26  27
ATOM     27  C   UNL     1      22.980  71.867  14.908  0.00  0.00    +0.000 C 
ATOM     28  O   UNL     1      23.696  72.852  14.530  0.00  0.00    +0.000 OA
ATOM     29  O   UNL     1      21.657  72.157  14.769  0.00  0.00    +0.000 OA
ENDBRANCH  26  27
BRANCH   5   4
ATOM      4  O   UNL     1      16.302  67.777   9.130  0.00  0.00    +0.000 OA
BRANCH   4   2
ATOM      1  C   UNL     1      14.959  66.186   8.141  0.00  0.00    +0.000 C 
ATOM      2  C   UNL     1      15.096  67.141   9.025  0.00  0.00    +0.000 C 
ATOM      3  O   UNL     1      14.063  67.686   9.504  0.00  0.00    +0.000 OA
ENDBRANCH   4   2
ENDBRANCH   5   4
TORSDOF 3
ENDMDL
MODEL 5
REMARK VINA RESULT:      -7.2     13.012     16.249
REMARK  Name = 
REMARK  3 active torsions:
REMARK  status: ('A' for Active; 'I' for Inactive)
REMARK    1  A    between atoms: C_2  and  O_4
REMARK    2  A    between atoms: O_4  and  C_5
REMARK    3  A    between atoms: C_26  and  C_27
REMARK                            x       y       z     vdW  Elec       q    Type
REMARK                         _______ _______ _______ _____ _____    ______ ____
ROOT
ATOM      5  C   UNL     1      33.830  60.922 -10.368  0.00  0.00    +0.000 C 
ATOM      6  C   UNL     1      32.656  62.019  -9.996  0.00  0.00    +0.000 C 
ATOM      7  C   UNL     1      31.532  60.981 -10.031  0.00  0.00    +0.000 C 
ATOM      8  C   UNL     1      31.910  59.840  -9.078  0.00  0.00    +0.000 C 
ATOM      9  C   UNL     1      32.444  58.685  -9.609  0.00  0.00    +0.000 C 
ATOM     10  C   UNL     1      32.788  60.687  -8.018  0.00  0.00    +0.000 C 
ATOM     11  C   UNL     1      33.118  59.423  -7.033  0.00  0.00    +0.000 C 
ATOM     12  C   UNL     1      31.830  59.590  -6.227  0.00  0.00    +0.000 C 
ATOM     13  C   UNL     1      30.886  58.836  -7.077  0.00  0.00    +0.000 C 
ATOM     14  C   UNL     1      31.510  57.551  -7.466  0.00  0.00    +0.000 C 
ATOM     15  C   UNL     1      30.453  59.711  -8.368  0.00  0.00    +0.000 C 
ATOM     16  C   UNL     1      30.013  58.402  -9.246  0.00  0.00    +0.000 C 
ATOM     17  C   UNL     1      29.024  57.636  -8.465  0.00  0.00    +0.000 C 
ATOM     18  C   UNL     1      28.686  57.943  -7.267  0.00  0.00    +0.000 C 
ATOM     19  C   UNL     1      27.930  56.912  -6.310  0.00  0.00    +0.000 C 
ATOM     20  C   UNL     1      26.998  56.172  -7.507  0.00  0.00    +0.000 C 
ATOM     21  C   UNL     1      25.604  56.951  -7.487  0.00  0.00    +0.000 C 
ATOM     22  C   UNL     1      26.401  54.984  -6.448  0.00  0.00    +0.000 C 
ATOM     23  C   UNL     1      27.892  54.357  -6.266  0.00  0.00    +0.000 C 
ATOM     24  C   UNL     1      26.464  55.746  -5.029  0.00  0.00    +0.000 C 
ATOM     25  C   UNL     1      25.985  57.122  -5.030  0.00  0.00    +0.000 C 
ATOM     26  C   UNL     1      26.920  58.021  -5.729  0.00  0.00    +0.000 C 
ATOM     30  C   UNL     1      27.904  58.696  -4.754  0.00  0.00    +0.000 C 
ATOM     31  C   UNL     1      28.938  59.517  -5.538  0.00  0.00    +0.000 C 
ATOM     32  C   UNL     1      29.690  58.515  -6.309  0.00  0.00    +0.000 C 
ATOM     33  C   UNL     1      30.224  57.506  -5.296  0.00  0.00    +0.000 C 
ATOM     34  C   UNL     1      34.193  60.590  -8.813  0.00  0.00    +0.000 C 
ATOM     35  C   UNL     1      34.956  61.685  -8.188  0.00  0.00    +0.000 C 
ATOM     36  C   UNL     1      34.821  59.282  -8.741  0.00  0.00    +0.000 C 
ENDROOT
BRANCH  26  27
ATOM     27  C   UNL     1      26.522  59.078  -6.523  0.00  0.00    +0.000 C 
ATOM     28  O   UNL     1      25.672  59.817  -5.926  0.00  0.00    +0.000 OA
ATOM     29  O   UNL     1      26.826  59.592  -7.746  0.00  0.00    +0.000 OA
ENDBRANCH  26  27
BRANCH   5   4
ATOM      4  O   UNL     1      34.893  62.023 -10.519  0.00  0.00    +0.000 OA
BRANCH   4   2
ATOM      1  C   UNL     1      35.451  61.133 -12.571  0.00  0.00    +0.000 C 
ATOM      2  C   UNL     1      35.755  61.928 -11.577  0.00  0.00    +0.000 C 
ATOM      3  O   UNL     1      36.950  62.308 -11.440  0.00  0.00    +0.000 OA
ENDBRANCH   4   2
ENDBRANCH   5   4
TORSDOF 3
ENDMDL
MODEL 6
REMARK VINA RESULT:      -7.2     21.971     25.255
REMARK  Name = 
REMARK  3 active torsions:
REMARK  status: ('A' for Active; 'I' for Inactive)
REMARK    1  A    between atoms: C_2  and  O_4
REMARK    2  A    between atoms: O_4  and  C_5
REMARK    3  A    between atoms: C_26  and  C_27
REMARK                            x       y       z     vdW  Elec       q    Type
REMARK                         _______ _______ _______ _____ _____    ______ ____
ROOT
ATOM      5  C   UNL     1       6.670  37.765 -18.898  0.00  0.00    +0.000 C 
ATOM      6  C   UNL     1       8.075  38.592 -19.143  0.00  0.00    +0.000 C 
ATOM      7  C   UNL     1       7.428  39.960 -18.919  0.00  0.00    +0.000 C 
ATOM      8  C   UNL     1       6.727  39.936 -17.556  0.00  0.00    +0.000 C 
ATOM      9  C   UNL     1       5.363  39.736 -17.517  0.00  0.00    +0.000 C 
ATOM     10  C   UNL     1       7.689  38.877 -16.804  0.00  0.00    +0.000 C 
ATOM     11  C   UNL     1       6.904  38.934 -15.369  0.00  0.00    +0.000 C 
ATOM     12  C   UNL     1       7.701  40.140 -14.871  0.00  0.00    +0.000 C 
ATOM     13  C   UNL     1       6.924  41.240 -15.476  0.00  0.00    +0.000 C 
ATOM     14  C   UNL     1       5.481  40.993 -15.246  0.00  0.00    +0.000 C 
ATOM     15  C   UNL     1       7.267  41.384 -17.051  0.00  0.00    +0.000 C 
ATOM     16  C   UNL     1       5.865  42.156 -17.399  0.00  0.00    +0.000 C 
ATOM     17  C   UNL     1       5.760  43.335 -16.520  0.00  0.00    +0.000 C 
ATOM     18  C   UNL     1       6.607  43.597 -15.593  0.00  0.00    +0.000 C 
ATOM     19  C   UNL     1       6.283  44.631 -14.419  0.00  0.00    +0.000 C 
ATOM     20  C   UNL     1       5.372  45.709 -15.345  0.00  0.00    +0.000 C 
ATOM     21  C   UNL     1       6.408  46.829 -15.816  0.00  0.00    +0.000 C 
ATOM     22  C   UNL     1       4.914  46.635 -13.995  0.00  0.00    +0.000 C 
ATOM     23  C   UNL     1       4.069  45.384 -13.387  0.00  0.00    +0.000 C 
ATOM     24  C   UNL     1       6.151  46.390 -12.991  0.00  0.00    +0.000 C 
ATOM     25  C   UNL     1       7.476  46.464 -13.593  0.00  0.00    +0.000 C 
ATOM     26  C   UNL     1       7.745  45.301 -14.457  0.00  0.00    +0.000 C 
ATOM     30  C   UNL     1       8.495  44.187 -13.701  0.00  0.00    +0.000 C 
ATOM     31  C   UNL     1       8.636  42.950 -14.598  0.00  0.00    +0.000 C 
ATOM     32  C   UNL     1       7.254  42.493 -14.810  0.00  0.00    +0.000 C 
ATOM     33  C   UNL     1       6.655  42.283 -13.423  0.00  0.00    +0.000 C 
ATOM     34  C   UNL     1       6.929  37.540 -17.304  0.00  0.00    +0.000 C 
ATOM     35  C   UNL     1       7.957  36.514 -17.061  0.00  0.00    +0.000 C 
ATOM     36  C   UNL     1       5.656  37.305 -16.644  0.00  0.00    +0.000 C 
ENDROOT
BRANCH  26  27
ATOM     27  C   UNL     1       8.443  45.371 -15.646  0.00  0.00    +0.000 C 
ATOM     28  O   UNL     1       9.576  45.936 -15.490  0.00  0.00    +0.000 OA
ATOM     29  O   UNL     1       8.291  44.953 -16.932  0.00  0.00    +0.000 OA
ENDBRANCH  26  27
BRANCH   5   4
ATOM      4  O   UNL     1       7.310  36.433 -19.324  0.00  0.00    +0.000 OA
BRANCH   4   2
ATOM      1  C   UNL     1       6.303  36.167 -21.381  0.00  0.00    +0.000 C 
ATOM      2  C   UNL     1       7.398  36.176 -20.665  0.00  0.00    +0.000 C 
ATOM      3  O   UNL     1       8.435  35.622 -21.124  0.00  0.00    +0.000 OA
ENDBRANCH   4   2
ENDBRANCH   5   4
TORSDOF 3
ENDMDL
MODEL 7
REMARK VINA RESULT:      -7.1     32.026     37.772
REMARK  Name = 
REMARK  3 active torsions:
REMARK  status: ('A' for Active; 'I' for Inactive)
REMARK    1  A    between atoms: C_2  and  O_4
REMARK    2  A    between atoms: O_4  and  C_5
REMARK    3  A    between atoms: C_26  and  C_27
REMARK                            x       y       z     vdW  Elec       q    Type
REMARK                         _______ _______ _______ _____ _____    ______ ____
ROOT
ATOM      5  C   UNL     1       9.368  58.318   6.304  0.00  0.00    +0.000 C 
ATOM      6  C   UNL     1       9.490  59.811   6.993  0.00  0.00    +0.000 C 
ATOM      7  C   UNL     1       8.088  60.241   6.555  0.00  0.00    +0.000 C 
ATOM      8  C   UNL     1       7.091  59.191   7.061  0.00  0.00    +0.000 C 
ATOM      9  C   UNL     1       6.633  58.235   6.180  0.00  0.00    +0.000 C 
ATOM     10  C   UNL     1       7.890  58.712   8.383  0.00  0.00    +0.000 C 
ATOM     11  C   UNL     1       6.760  57.634   8.873  0.00  0.00    +0.000 C 
ATOM     12  C   UNL     1       5.953  58.684   9.639  0.00  0.00    +0.000 C 
ATOM     13  C   UNL     1       5.127  59.233   8.545  0.00  0.00    +0.000 C 
ATOM     14  C   UNL     1       4.570  58.112   7.754  0.00  0.00    +0.000 C 
ATOM     15  C   UNL     1       5.993  60.247   7.628  0.00  0.00    +0.000 C 
ATOM     16  C   UNL     1       5.006  60.092   6.331  0.00  0.00    +0.000 C 
ATOM     17  C   UNL     1       3.632  60.417   6.757  0.00  0.00    +0.000 C 
ATOM     18  C   UNL     1       3.317  60.671   7.974  0.00  0.00    +0.000 C 
ATOM     19  C   UNL     1       1.803  60.637   8.481  0.00  0.00    +0.000 C 
ATOM     20  C   UNL     1       1.103  61.238   7.067  0.00  0.00    +0.000 C 
ATOM     21  C   UNL     1       0.969  62.811   7.307  0.00  0.00    +0.000 C 
ATOM     22  C   UNL     1      -0.482  60.973   7.620  0.00  0.00    +0.000 C 
ATOM     23  C   UNL     1      -0.241  59.363   7.625  0.00  0.00    +0.000 C 
ATOM     24  C   UNL     1      -0.297  61.084   9.218  0.00  0.00    +0.000 C 
ATOM     25  C   UNL     1       0.532  62.189   9.681  0.00  0.00    +0.000 C 
ATOM     26  C   UNL     1       1.956  61.965   9.376  0.00  0.00    +0.000 C 
ATOM     30  C   UNL     1       2.702  61.321  10.561  0.00  0.00    +0.000 C 
ATOM     31  C   UNL     1       4.143  60.987  10.152  0.00  0.00    +0.000 C 
ATOM     32  C   UNL     1       3.998  59.962   9.108  0.00  0.00    +0.000 C 
ATOM     33  C   UNL     1       3.168  58.838   9.722  0.00  0.00    +0.000 C 
ATOM     34  C   UNL     1       8.810  57.598   7.656  0.00  0.00    +0.000 C 
ATOM     35  C   UNL     1       9.879  57.410   8.652  0.00  0.00    +0.000 C 
ATOM     36  C   UNL     1       8.091  56.390   7.288  0.00  0.00    +0.000 C 
ENDROOT
BRANCH  26  27
ATOM     27  C   UNL     1       2.826  62.963   8.988  0.00  0.00    +0.000 C 
ATOM     28  O   UNL     1       2.816  63.938   9.810  0.00  0.00    +0.000 OA
ATOM     29  O   UNL     1       3.742  63.179   8.004  0.00  0.00    +0.000 OA
ENDBRANCH  26  27
BRANCH   5   4
ATOM      4  O   UNL     1      10.846  58.002   6.587  0.00  0.00    +0.000 OA
BRANCH   4   2
ATOM      1  C   UNL     1      11.026  56.818   4.617  0.00  0.00    +0.000 C 
ATOM      2  C   UNL     1      11.603  57.536   5.547  0.00  0.00    +0.000 C 
ATOM      3  O   UNL     1      12.859  57.495   5.662  0.00  0.00    +0.000 OA
ENDBRANCH   4   2
ENDBRANCH   5   4
TORSDOF 3
ENDMDL
MODEL 8
REMARK VINA RESULT:      -7.0     36.036     41.422
REMARK  Name = 
REMARK  3 active torsions:
REMARK  status: ('A' for Active; 'I' for Inactive)
REMARK    1  A    between atoms: C_2  and  O_4
REMARK    2  A    between atoms: O_4  and  C_5
REMARK    3  A    between atoms: C_26  and  C_27
REMARK                            x       y       z     vdW  Elec       q    Type
REMARK                         _______ _______ _______ _____ _____    ______ ____
ROOT
ATOM      5  C   UNL     1      25.384  44.687  16.647  0.00  0.00    +0.000 C 
ATOM      6  C   UNL     1      23.996  43.797  16.630  0.00  0.00    +0.000 C 
ATOM      7  C   UNL     1      24.730  42.466  16.452  0.00  0.00    +0.000 C 
ATOM      8  C   UNL     1      25.763  42.340  17.578  0.00  0.00    +0.000 C 
ATOM      9  C   UNL     1      27.081  42.640  17.304  0.00  0.00    +0.000 C 
ATOM     10  C   UNL     1      24.992  43.193  18.714  0.00  0.00    +0.000 C 
ATOM     11  C   UNL     1      26.127  42.982  19.874  0.00  0.00    +0.000 C 
ATOM     12  C   UNL     1      25.535  41.655  20.349  0.00  0.00    +0.000 C 
ATOM     13  C   UNL     1      26.168  40.725  19.392  0.00  0.00    +0.000 C 
ATOM     14  C   UNL     1      27.609  41.049  19.288  0.00  0.00    +0.000 C 
ATOM     15  C   UNL     1      25.430  40.793  17.953  0.00  0.00    +0.000 C 
ATOM     16  C   UNL     1      26.719  40.198  17.139  0.00  0.00    +0.000 C 
ATOM     17  C   UNL     1      27.097  38.911  17.754  0.00  0.00    +0.000 C 
ATOM     18  C   UNL     1      26.533  38.445  18.807  0.00  0.00    +0.000 C 
ATOM     19  C   UNL     1      27.191  37.275  19.672  0.00  0.00    +0.000 C 
ATOM     20  C   UNL     1      27.869  36.426  18.380  0.00  0.00    +0.000 C 
ATOM     21  C   UNL     1      26.789  35.311  18.005  0.00  0.00    +0.000 C 
ATOM     22  C   UNL     1      28.700  35.346  19.396  0.00  0.00    +0.000 C 
ATOM     23  C   UNL     1      29.625  36.554  19.971  0.00  0.00    +0.000 C 
ATOM     24  C   UNL     1      27.761  35.337  20.706  0.00  0.00    +0.000 C 
ATOM     25  C   UNL     1      26.328  35.248  20.454  0.00  0.00    +0.000 C 
ATOM     26  C   UNL     1      25.798  36.503  19.893  0.00  0.00    +0.000 C 
ATOM     30  C   UNL     1      25.230  37.427  20.988  0.00  0.00    +0.000 C 
ATOM     31  C   UNL     1      24.812  38.770  20.375  0.00  0.00    +0.000 C 
ATOM     32  C   UNL     1      26.071  39.363  19.901  0.00  0.00    +0.000 C 
ATOM     33  C   UNL     1      27.005  39.407  21.107  0.00  0.00    +0.000 C 
ATOM     34  C   UNL     1      25.543  44.646  18.269  0.00  0.00    +0.000 C 
ATOM     35  C   UNL     1      24.576  45.538  18.932  0.00  0.00    +0.000 C 
ATOM     36  C   UNL     1      26.934  44.880  18.616  0.00  0.00    +0.000 C 
ENDROOT
BRANCH  26  27
ATOM     27  C   UNL     1      24.816  36.558  18.924  0.00  0.00    +0.000 C 
ATOM     28  O   UNL     1      23.826  35.810  19.219  0.00  0.00    +0.000 OA
ATOM     29  O   UNL     1      24.576  37.234  17.768  0.00  0.00    +0.000 OA
ENDBRANCH  26  27
BRANCH   5   4
ATOM      4  O   UNL     1      24.603  46.012  16.625  0.00  0.00    +0.000 OA
BRANCH   4   2
ATOM      1  C   UNL     1      25.743  46.654  14.726  0.00  0.00    +0.000 C 
ATOM      2  C   UNL     1      25.051  46.994  15.784  0.00  0.00    +0.000 C 
ATOM      3  O   UNL     1      25.104  48.186  16.194  0.00  0.00    +0.000 OA
ENDBRANCH   4   2
ENDBRANCH   5   4
TORSDOF 3
ENDMDL
MODEL 9
REMARK VINA RESULT:      -7.0     13.466     16.930
REMARK  Name = 
REMARK  3 active torsions:
REMARK  status: ('A' for Active; 'I' for Inactive)
REMARK    1  A    between atoms: C_2  and  O_4
REMARK    2  A    between atoms: O_4  and  C_5
REMARK    3  A    between atoms: C_26  and  C_27
REMARK                            x       y       z     vdW  Elec       q    Type
REMARK                         _______ _______ _______ _____ _____    ______ ____
ROOT
ATOM      5  C   UNL     1      31.812  60.079  -7.260  0.00  0.00    +0.000 C 
ATOM      6  C   UNL     1      32.146  58.737  -6.361  0.00  0.00    +0.000 C 
ATOM      7  C   UNL     1      30.836  58.813  -5.573  0.00  0.00    +0.000 C 
ATOM      8  C   UNL     1      29.679  58.850  -6.579  0.00  0.00    +0.000 C 
ATOM      9  C   UNL     1      29.100  60.066  -6.877  0.00  0.00    +0.000 C 
ATOM     10  C   UNL     1      30.366  58.003  -7.773  0.00  0.00    +0.000 C 
ATOM     11  C   UNL     1      29.073  58.059  -8.776  0.00  0.00    +0.000 C 
ATOM     12  C   UNL     1      28.420  56.822  -8.159  0.00  0.00    +0.000 C 
ATOM     13  C   UNL     1      27.712  57.436  -7.018  0.00  0.00    +0.000 C 
ATOM     14  C   UNL     1      27.008  58.651  -7.487  0.00  0.00    +0.000 C 
ATOM     15  C   UNL     1      28.743  57.763  -5.814  0.00  0.00    +0.000 C 
ATOM     16  C   UNL     1      27.773  58.899  -5.144  0.00  0.00    +0.000 C 
ATOM     17  C   UNL     1      26.456  58.286  -4.889  0.00  0.00    +0.000 C 
ATOM     18  C   UNL     1      26.157  57.092  -5.248  0.00  0.00    +0.000 C 
ATOM     19  C   UNL     1      24.644  56.584  -5.318  0.00  0.00    +0.000 C 
ATOM     20  C   UNL     1      24.077  57.455  -3.989  0.00  0.00    +0.000 C 
ATOM     21  C   UNL     1      24.180  56.444  -2.757  0.00  0.00    +0.000 C 
ATOM     22  C   UNL     1      22.457  57.019  -4.269  0.00  0.00    +0.000 C 
ATOM     23  C   UNL     1      22.449  57.844  -5.672  0.00  0.00    +0.000 C 
ATOM     24  C   UNL     1      22.622  55.599  -5.014  0.00  0.00    +0.000 C 
ATOM     25  C   UNL     1      23.600  54.690  -4.430  0.00  0.00    +0.000 C 
ATOM     26  C   UNL     1      24.979  55.151  -4.669  0.00  0.00    +0.000 C 
ATOM     30  C   UNL     1      25.591  54.501  -5.925  0.00  0.00    +0.000 C 
ATOM     31  C   UNL     1      26.973  55.107  -6.207  0.00  0.00    +0.000 C 
ATOM     32  C   UNL     1      26.696  56.516  -6.525  0.00  0.00    +0.000 C 
ATOM     33  C   UNL     1      25.690  56.507  -7.673  0.00  0.00    +0.000 C 
ATOM     34  C   UNL     1      31.120  59.247  -8.480  0.00  0.00    +0.000 C 
ATOM     35  C   UNL     1      32.125  58.548  -9.299  0.00  0.00    +0.000 C 
ATOM     36  C   UNL     1      30.233  60.132  -9.215  0.00  0.00    +0.000 C 
ENDROOT
BRANCH  26  27
ATOM     27  C   UNL     1      26.000  55.031  -3.748  0.00  0.00    +0.000 C 
ATOM     28  O   UNL     1      26.259  53.808  -3.493  0.00  0.00    +0.000 OA
ATOM     29  O   UNL     1      26.856  55.849  -3.077  0.00  0.00    +0.000 OA
ENDBRANCH  26  27
BRANCH   5   4
ATOM      4  O   UNL     1      33.217  60.082  -7.884  0.00  0.00    +0.000 OA
BRANCH   4   2
ATOM      1  C   UNL     1      35.051  61.329  -8.518  0.00  0.00    +0.000 C 
ATOM      2  C   UNL     1      33.893  61.272  -7.910  0.00  0.00    +0.000 C 
ATOM      3  O   UNL     1      33.588  62.177  -7.085  0.00  0.00    +0.000 OA
ENDBRANCH   4   2
ENDBRANCH   5   4
TORSDOF 3
ENDMDL
MODEL 10
REMARK VINA RESULT:      -7.0     37.259     43.161
REMARK  Name = 
REMARK  3 active torsions:
REMARK  status: ('A' for Active; 'I' for Inactive)
REMARK    1  A    between atoms: C_2  and  O_4
REMARK    2  A    between atoms: O_4  and  C_5
REMARK    3  A    between atoms: C_26  and  C_27
REMARK                            x       y       z     vdW  Elec       q    Type
REMARK                         _______ _______ _______ _____ _____    ______ ____
ROOT
ATOM      5  C   UNL     1      25.146  43.750  17.949  0.00  0.00    +0.000 C 
ATOM      6  C   UNL     1      24.062  43.634  19.185  0.00  0.00    +0.000 C 
ATOM      7  C   UNL     1      23.825  42.137  18.974  0.00  0.00    +0.000 C 
ATOM      8  C   UNL     1      25.186  41.431  19.018  0.00  0.00    +0.000 C 
ATOM      9  C   UNL     1      25.793  41.091  17.828  0.00  0.00    +0.000 C 
ATOM     10  C   UNL     1      25.953  42.441  20.022  0.00  0.00    +0.000 C 
ATOM     11  C   UNL     1      27.363  41.610  20.041  0.00  0.00    +0.000 C 
ATOM     12  C   UNL     1      26.915  40.687  21.176  0.00  0.00    +0.000 C 
ATOM     13  C   UNL     1      26.182  39.661  20.409  0.00  0.00    +0.000 C 
ATOM     14  C   UNL     1      26.993  39.266  19.234  0.00  0.00    +0.000 C 
ATOM     15  C   UNL     1      24.720  40.203  19.976  0.00  0.00    +0.000 C 
ATOM     16  C   UNL     1      24.570  39.143  18.738  0.00  0.00    +0.000 C 
ATOM     17  C   UNL     1      24.762  37.782  19.273  0.00  0.00    +0.000 C 
ATOM     18  C   UNL     1      25.088  37.547  20.491  0.00  0.00    +0.000 C 
ATOM     19  C   UNL     1      25.662  36.130  20.954  0.00  0.00    +0.000 C 
ATOM     20  C   UNL     1      24.729  35.184  19.915  0.00  0.00    +0.000 C 
ATOM     21  C   UNL     1      23.454  34.757  20.777  0.00  0.00    +0.000 C 
ATOM     22  C   UNL     1      25.544  33.750  20.327  0.00  0.00    +0.000 C 
ATOM     23  C   UNL     1      26.924  34.313  19.673  0.00  0.00    +0.000 C 
ATOM     24  C   UNL     1      26.034  34.070  21.829  0.00  0.00    +0.000 C 
ATOM     25  C   UNL     1      25.044  34.698  22.695  0.00  0.00    +0.000 C 
ATOM     26  C   UNL     1      24.800  36.099  22.311  0.00  0.00    +0.000 C 
ATOM     30  C   UNL     1      25.671  37.077  23.123  0.00  0.00    +0.000 C 
ATOM     31  C   UNL     1      25.479  38.507  22.601  0.00  0.00    +0.000 C 
ATOM     32  C   UNL     1      26.012  38.469  21.230  0.00  0.00    +0.000 C 
ATOM     33  C   UNL     1      27.444  37.952  21.341  0.00  0.00    +0.000 C 
ATOM     34  C   UNL     1      26.448  43.490  18.895  0.00  0.00    +0.000 C 
ATOM     35  C   UNL     1      26.766  44.670  19.718  0.00  0.00    +0.000 C 
ATOM     36  C   UNL     1      27.542  42.999  18.074  0.00  0.00    +0.000 C 
ENDROOT
BRANCH  26  27
ATOM     27  C   UNL     1      23.559  36.704  22.355  0.00  0.00    +0.000 C 
ATOM     28  O   UNL     1      23.111  36.764  23.548  0.00  0.00    +0.000 OA
ATOM     29  O   UNL     1      22.701  37.312  21.492  0.00  0.00    +0.000 OA
ENDBRANCH  26  27
BRANCH   5   4
ATOM      4  O   UNL     1      25.203  45.282  18.065  0.00  0.00    +0.000 OA
BRANCH   4   2
ATOM      1  C   UNL     1      25.326  45.470  15.770  0.00  0.00    +0.000 C 
ATOM      2  C   UNL     1      25.014  46.009  16.921  0.00  0.00    +0.000 C 
ATOM      3  O   UNL     1      24.885  47.262  16.997  0.00  0.00    +0.000 OA
ENDBRANCH   4   2
ENDBRANCH   5   4
TORSDOF 3
ENDMDL
