MODEL 1
REMARK VINA RESULT:      -7.8      0.000      0.000
REMARK  Name = 
REMARK  3 active torsions:
REMARK  status: ('A' for Active; 'I' for Inactive)
REMARK    1  A    between atoms: C_2  and  O_4
REMARK    2  A    between atoms: O_4  and  C_5
REMARK    3  A    between atoms: C_26  and  C_27
REMARK                            x       y       z     vdW  Elec       q    Type
REMARK                         _______ _______ _______ _____ _____    ______ ____
ROOT
ATOM      5  C   UNL     1      23.377  71.732  15.762  0.00  0.00    +0.000 C 
ATOM      6  C   UNL     1      22.025  72.489  16.329  0.00  0.00    +0.000 C 
ATOM      7  C   UNL     1      20.871  71.693  15.801  0.00  0.00    +0.000 C 
ATOM      8  C   UNL     1      21.365  70.570  14.957  0.00  0.00    +0.000 C 
ATOM      9  C   UNL     1      22.176  70.854  13.813  0.00  0.00    +0.000 C 
ATOM     10  C   UNL     1      21.990  69.516  16.019  0.00  0.00    +0.000 C 
ATOM     11  C   UNL     1      22.957  68.825  14.888  0.00  0.00    +0.000 C 
ATOM     12  C   UNL     1      21.904  68.250  13.990  0.00  0.00    +0.000 C 
ATOM     13  C   UNL     1      20.525  68.318  14.419  0.00  0.00    +0.000 C 
ATOM     14  C   UNL     1      20.210  67.650  15.759  0.00  0.00    +0.000 C 
ATOM     15  C   UNL     1      19.959  69.834  14.552  0.00  0.00    +0.000 C 
ATOM     16  C   UNL     1      20.090  70.288  12.993  0.00  0.00    +0.000 C 
ATOM     17  C   UNL     1      20.146  69.194  12.082  0.00  0.00    +0.000 C 
ATOM     18  C   UNL     1      19.296  68.230  12.274  0.00  0.00    +0.000 C 
ATOM     19  C   UNL     1      19.057  67.130  11.143  0.00  0.00    +0.000 C 
ATOM     20  C   UNL     1      18.722  68.280   9.952  0.00  0.00    +0.000 C 
ATOM     21  C   UNL     1      19.778  67.555   8.974  0.00  0.00    +0.000 C 
ATOM     22  C   UNL     1      17.327  67.584   9.312  0.00  0.00    +0.000 C 
ATOM     23  C   UNL     1      17.735  67.805   7.757  0.00  0.00    +0.000 C 
ATOM     24  C   UNL     1      17.818  66.040   9.386  0.00  0.00    +0.000 C 
ATOM     25  C   UNL     1      17.070  65.811  10.710  0.00  0.00    +0.000 C 
ATOM     26  C   UNL     1      17.557  66.830  11.670  0.00  0.00    +0.000 C 
ATOM     30  C   UNL     1      17.943  66.009  12.916  0.00  0.00    +0.000 C 
ATOM     31  C   UNL     1      18.414  66.931  14.044  0.00  0.00    +0.000 C 
ATOM     32  C   UNL     1      19.683  67.507  13.525  0.00  0.00    +0.000 C 
ATOM     33  C   UNL     1      20.556  66.288  13.227  0.00  0.00    +0.000 C 
ATOM     34  C   UNL     1      23.150  70.418  16.684  0.00  0.00    +0.000 C 
ATOM     35  C   UNL     1      24.417  69.633  16.696  0.00  0.00    +0.000 C 
ATOM     36  C   UNL     1      22.700  70.841  18.037  0.00  0.00    +0.000 C 
ENDROOT
BRANCH  26  27
ATOM     27  C   UNL     1      16.811  67.923  12.086  0.00  0.00    +0.000 C 
ATOM     28  O   UNL     1      15.622  67.686  12.506  0.00  0.00    +0.000 OA
ATOM     29  O   UNL     1      16.866  69.298  11.947  0.00  0.00    +0.000 OA
ENDBRANCH  26  27
BRANCH   5   4
ATOM      4  O   UNL     1      24.270  72.387  16.833  0.00  0.00    +0.000 OA
BRANCH   4   2
ATOM      1  C   UNL     1      26.424  72.912  16.129  0.00  0.00    +0.000 C 
ATOM      2  C   UNL     1      25.197  73.238  16.222  0.00  0.00    +0.000 C 
ATOM      3  O   UNL     1      24.845  74.312  15.643  0.00  0.00    +0.000 OA
ENDBRANCH   4   2
ENDBRANCH   5   4
TORSDOF 3
ENDMDL
MODEL 2
REMARK VINA RESULT:      -7.4     36.192     40.896
REMARK  Name = 
REMARK  3 active torsions:
REMARK  status: ('A' for Active; 'I' for Inactive)
REMARK    1  A    between atoms: C_2  and  O_4
REMARK    2  A    between atoms: O_4  and  C_5
REMARK    3  A    between atoms: C_26  and  C_27
REMARK                            x       y       z     vdW  Elec       q    Type
REMARK                         _______ _______ _______ _____ _____    ______ ____
ROOT
ATOM      5  C   UNL     1       5.645  48.008 -13.524  0.00  0.00    +0.000 C 
ATOM      6  C   UNL     1       4.354  47.307 -12.774  0.00  0.00    +0.000 C 
ATOM      7  C   UNL     1       4.461  45.844 -13.080  0.00  0.00    +0.000 C 
ATOM      8  C   UNL     1       5.640  45.587 -13.951  0.00  0.00    +0.000 C 
ATOM      9  C   UNL     1       5.733  46.240 -15.220  0.00  0.00    +0.000 C 
ATOM     10  C   UNL     1       6.915  45.777 -12.966  0.00  0.00    +0.000 C 
ATOM     11  C   UNL     1       7.934  46.090 -14.213  0.00  0.00    +0.000 C 
ATOM     12  C   UNL     1       7.880  44.763 -14.907  0.00  0.00    +0.000 C 
ATOM     13  C   UNL     1       7.169  43.681 -14.264  0.00  0.00    +0.000 C 
ATOM     14  C   UNL     1       7.663  43.297 -12.867  0.00  0.00    +0.000 C 
ATOM     15  C   UNL     1       5.579  43.956 -14.097  0.00  0.00    +0.000 C 
ATOM     16  C   UNL     1       5.172  44.043 -15.672  0.00  0.00    +0.000 C 
ATOM     17  C   UNL     1       6.110  43.413 -16.539  0.00  0.00    +0.000 C 
ATOM     18  C   UNL     1       6.546  42.243 -16.177  0.00  0.00    +0.000 C 
ATOM     19  C   UNL     1       7.335  41.322 -17.214  0.00  0.00    +0.000 C 
ATOM     20  C   UNL     1       6.112  41.406 -18.376  0.00  0.00    +0.000 C 
ATOM     21  C   UNL     1       7.212  41.804 -19.486  0.00  0.00    +0.000 C 
ATOM     22  C   UNL     1       6.009  39.768 -18.758  0.00  0.00    +0.000 C 
ATOM     23  C   UNL     1       5.941  39.980 -20.365  0.00  0.00    +0.000 C 
ATOM     24  C   UNL     1       7.598  39.448 -18.707  0.00  0.00    +0.000 C 
ATOM     25  C   UNL     1       7.496  38.904 -17.272  0.00  0.00    +0.000 C 
ATOM     26  C   UNL     1       6.890  39.971 -16.442  0.00  0.00    +0.000 C 
ATOM     30  C   UNL     1       7.854  40.100 -15.245  0.00  0.00    +0.000 C 
ATOM     31  C   UNL     1       7.333  41.133 -14.243  0.00  0.00    +0.000 C 
ATOM     32  C   UNL     1       7.424  42.420 -14.980  0.00  0.00    +0.000 C 
ATOM     33  C   UNL     1       8.898  42.528 -15.370  0.00  0.00    +0.000 C 
ATOM     34  C   UNL     1       6.725  47.319 -12.531  0.00  0.00    +0.000 C 
ATOM     35  C   UNL     1       8.027  48.025 -12.695  0.00  0.00    +0.000 C 
ATOM     36  C   UNL     1       6.201  47.353 -11.139  0.00  0.00    +0.000 C 
ENDROOT
BRANCH  26  27
ATOM     27  C   UNL     1       5.593  39.931 -15.950  0.00  0.00    +0.000 C 
ATOM     28  O   UNL     1       5.242  38.863 -15.333  0.00  0.00    +0.000 OA
ATOM     29  O   UNL     1       4.415  40.625 -16.148  0.00  0.00    +0.000 OA
ENDBRANCH  26  27
BRANCH   5   4
ATOM      4  O   UNL     1       5.560  49.264 -12.636  0.00  0.00    +0.000 OA
BRANCH   4   2
ATOM      1  C   UNL     1       3.717  50.590 -13.143  0.00  0.00    +0.000 C 
ATOM      2  C   UNL     1       4.942  50.302 -13.341  0.00  0.00    +0.000 C 
ATOM      3  O   UNL     1       5.590  51.068 -14.118  0.00  0.00    +0.000 OA
ENDBRANCH   4   2
ENDBRANCH   5   4
TORSDOF 3
ENDMDL
MODEL 3
REMARK VINA RESULT:      -7.4     17.305     20.971
REMARK  Name = 
REMARK  3 active torsions:
REMARK  status: ('A' for Active; 'I' for Inactive)
REMARK    1  A    between atoms: C_2  and  O_4
REMARK    2  A    between atoms: O_4  and  C_5
REMARK    3  A    between atoms: C_26  and  C_27
REMARK                            x       y       z     vdW  Elec       q    Type
REMARK                         _______ _______ _______ _____ _____    ______ ____
ROOT
ATOM      5  C   UNL     1       6.985  57.845   7.224  0.00  0.00    +0.000 C 
ATOM      6  C   UNL     1       5.989  57.418   5.980  0.00  0.00    +0.000 C 
ATOM      7  C   UNL     1       4.679  58.085   6.270  0.00  0.00    +0.000 C 
ATOM      8  C   UNL     1       4.757  58.833   7.555  0.00  0.00    +0.000 C 
ATOM      9  C   UNL     1       5.093  58.132   8.757  0.00  0.00    +0.000 C 
ATOM     10  C   UNL     1       5.678  60.124   7.212  0.00  0.00    +0.000 C 
ATOM     11  C   UNL     1       6.108  60.335   8.781  0.00  0.00    +0.000 C 
ATOM     12  C   UNL     1       4.765  60.667   9.356  0.00  0.00    +0.000 C 
ATOM     13  C   UNL     1       3.655  60.846   8.448  0.00  0.00    +0.000 C 
ATOM     14  C   UNL     1       3.831  61.935   7.387  0.00  0.00    +0.000 C 
ATOM     15  C   UNL     1       3.265  59.503   7.625  0.00  0.00    +0.000 C 
ATOM     16  C   UNL     1       2.824  58.559   8.878  0.00  0.00    +0.000 C 
ATOM     17  C   UNL     1       2.473  59.292  10.048  0.00  0.00    +0.000 C 
ATOM     18  C   UNL     1       1.706  60.328   9.881  0.00  0.00    +0.000 C 
ATOM     19  C   UNL     1       1.000  61.018  11.135  0.00  0.00    +0.000 C 
ATOM     20  C   UNL     1       0.304  59.572  11.666  0.00  0.00    +0.000 C 
ATOM     21  C   UNL     1       0.873  59.859  13.147  0.00  0.00    +0.000 C 
ATOM     22  C   UNL     1      -1.265  60.127  11.931  0.00  0.00    +0.000 C 
ATOM     23  C   UNL     1      -1.461  59.384  13.360  0.00  0.00    +0.000 C 
ATOM     24  C   UNL     1      -0.867  61.571  12.556  0.00  0.00    +0.000 C 
ATOM     25  C   UNL     1      -1.074  62.272  11.203  0.00  0.00    +0.000 C 
ATOM     26  C   UNL     1      -0.206  61.584  10.217  0.00  0.00    +0.000 C 
ATOM     30  C   UNL     1       0.575  62.733   9.549  0.00  0.00    +0.000 C 
ATOM     31  C   UNL     1       1.485  62.193   8.442  0.00  0.00    +0.000 C 
ATOM     32  C   UNL     1       2.495  61.386   9.176  0.00  0.00    +0.000 C 
ATOM     33  C   UNL     1       3.125  62.372  10.160  0.00  0.00    +0.000 C 
ATOM     34  C   UNL     1       7.050  59.400   6.771  0.00  0.00    +0.000 C 
ATOM     35  C   UNL     1       8.183  60.047   7.490  0.00  0.00    +0.000 C 
ATOM     36  C   UNL     1       7.166  59.473   5.290  0.00  0.00    +0.000 C 
ENDROOT
BRANCH  26  27
ATOM     27  C   UNL     1      -0.680  60.745   9.219  0.00  0.00    +0.000 C 
ATOM     28  O   UNL     1      -1.628  61.198   8.484  0.00  0.00    +0.000 OA
ATOM     29  O   UNL     1      -0.611  59.399   8.912  0.00  0.00    +0.000 OA
ENDBRANCH  26  27
BRANCH   5   4
ATOM      4  O   UNL     1       8.249  57.506   6.413  0.00  0.00    +0.000 OA
BRANCH   4   2
ATOM      1  C   UNL     1       8.903  56.411   8.358  0.00  0.00    +0.000 C 
ATOM      2  C   UNL     1       9.012  56.555   7.098  0.00  0.00    +0.000 C 
ATOM      3  O   UNL     1       9.758  55.726   6.491  0.00  0.00    +0.000 OA
ENDBRANCH   4   2
ENDBRANCH   5   4
TORSDOF 3
ENDMDL
MODEL 4
REMARK VINA RESULT:      -7.4     23.297     27.342
REMARK  Name = 
REMARK  3 active torsions:
REMARK  status: ('A' for Active; 'I' for Inactive)
REMARK    1  A    between atoms: C_2  and  O_4
REMARK    2  A    between atoms: O_4  and  C_5
REMARK    3  A    between atoms: C_26  and  C_27
REMARK                            x       y       z     vdW  Elec       q    Type
REMARK                         _______ _______ _______ _____ _____    ______ ____
ROOT
ATOM      5  C   UNL     1      27.486  57.062  -7.035  0.00  0.00    +0.000 C 
ATOM      6  C   UNL     1      28.444  56.253  -5.963  0.00  0.00    +0.000 C 
ATOM      7  C   UNL     1      29.807  56.859  -6.108  0.00  0.00    +0.000 C 
ATOM      8  C   UNL     1      29.791  57.912  -7.161  0.00  0.00    +0.000 C 
ATOM      9  C   UNL     1      29.393  57.569  -8.492  0.00  0.00    +0.000 C 
ATOM     10  C   UNL     1      28.988  59.146  -6.481  0.00  0.00    +0.000 C 
ATOM     11  C   UNL     1      28.573  59.783  -7.935  0.00  0.00    +0.000 C 
ATOM     12  C   UNL     1      29.939  60.136  -8.441  0.00  0.00    +0.000 C 
ATOM     13  C   UNL     1      31.062  59.986  -7.545  0.00  0.00    +0.000 C 
ATOM     14  C   UNL     1      30.984  60.781  -6.240  0.00  0.00    +0.000 C 
ATOM     15  C   UNL     1      31.336  58.450  -7.096  0.00  0.00    +0.000 C 
ATOM     16  C   UNL     1      31.690  57.821  -8.557  0.00  0.00    +0.000 C 
ATOM     17  C   UNL     1      32.100  58.794  -9.513  0.00  0.00    +0.000 C 
ATOM     18  C   UNL     1      32.955  59.686  -9.109  0.00  0.00    +0.000 C 
ATOM     19  C   UNL     1      33.716  60.608 -10.166  0.00  0.00    +0.000 C 
ATOM     20  C   UNL     1      34.281  59.292 -11.061  0.00  0.00    +0.000 C 
ATOM     21  C   UNL     1      33.736  59.990 -12.407  0.00  0.00    +0.000 C 
ATOM     22  C   UNL     1      35.892  59.762 -11.216  0.00  0.00    +0.000 C 
ATOM     23  C   UNL     1      36.018  59.391 -12.790  0.00  0.00    +0.000 C 
ATOM     24  C   UNL     1      35.620  61.345 -11.447  0.00  0.00    +0.000 C 
ATOM     25  C   UNL     1      35.890  61.661  -9.966  0.00  0.00    +0.000 C 
ATOM     26  C   UNL     1      34.969  60.821  -9.164  0.00  0.00    +0.000 C 
ATOM     30  C   UNL     1      34.292  61.825  -8.210  0.00  0.00    +0.000 C 
ATOM     31  C   UNL     1      33.342  61.101  -7.253  0.00  0.00    +0.000 C 
ATOM     32  C   UNL     1      32.263  60.593  -8.142  0.00  0.00    +0.000 C 
ATOM     33  C   UNL     1      31.720  61.845  -8.830  0.00  0.00    +0.000 C 
ATOM     34  C   UNL     1      27.558  58.452  -6.204  0.00  0.00    +0.000 C 
ATOM     35  C   UNL     1      26.484  59.353  -6.708  0.00  0.00    +0.000 C 
ATOM     36  C   UNL     1      27.453  58.158  -4.749  0.00  0.00    +0.000 C 
ENDROOT
BRANCH  26  27
ATOM     27  C   UNL     1      35.370  59.720  -8.422  0.00  0.00    +0.000 C 
ATOM     28  O   UNL     1      36.358  59.890  -7.623  0.00  0.00    +0.000 OA
ATOM     29  O   UNL     1      35.182  58.351  -8.461  0.00  0.00    +0.000 OA
ENDBRANCH  26  27
BRANCH   5   4
ATOM      4  O   UNL     1      26.199  56.637  -6.304  0.00  0.00    +0.000 OA
BRANCH   4   2
ATOM      1  C   UNL     1      25.152  54.589  -6.648  0.00  0.00    +0.000 C 
ATOM      2  C   UNL     1      25.480  55.735  -7.095  0.00  0.00    +0.000 C 
ATOM      3  O   UNL     1      25.031  56.051  -8.240  0.00  0.00    +0.000 OA
ENDBRANCH   4   2
ENDBRANCH   5   4
TORSDOF 3
ENDMDL
MODEL 5
REMARK VINA RESULT:      -7.3     38.049     43.520
REMARK  Name = 
REMARK  3 active torsions:
REMARK  status: ('A' for Active; 'I' for Inactive)
REMARK    1  A    between atoms: C_2  and  O_4
REMARK    2  A    between atoms: O_4  and  C_5
REMARK    3  A    between atoms: C_26  and  C_27
REMARK                            x       y       z     vdW  Elec       q    Type
REMARK                         _______ _______ _______ _____ _____    ______ ____
ROOT
ATOM      5  C   UNL     1       7.521  45.150 -14.861  0.00  0.00    +0.000 C 
ATOM      6  C   UNL     1       8.957  45.021 -15.661  0.00  0.00    +0.000 C 
ATOM      7  C   UNL     1       8.904  43.701 -16.368  0.00  0.00    +0.000 C 
ATOM      8  C   UNL     1       7.623  43.006 -16.061  0.00  0.00    +0.000 C 
ATOM      9  C   UNL     1       7.290  42.715 -14.700  0.00  0.00    +0.000 C 
ATOM     10  C   UNL     1       6.507  43.835 -16.897  0.00  0.00    +0.000 C 
ATOM     11  C   UNL     1       5.287  43.337 -15.919  0.00  0.00    +0.000 C 
ATOM     12  C   UNL     1       5.323  41.869 -16.219  0.00  0.00    +0.000 C 
ATOM     13  C   UNL     1       6.197  41.405 -17.272  0.00  0.00    +0.000 C 
ATOM     14  C   UNL     1       5.953  42.013 -18.655  0.00  0.00    +0.000 C 
ATOM     15  C   UNL     1       7.771  41.650 -16.966  0.00  0.00    +0.000 C 
ATOM     16  C   UNL     1       7.922  40.703 -15.649  0.00  0.00    +0.000 C 
ATOM     17  C   UNL     1       6.905  39.711 -15.540  0.00  0.00    +0.000 C 
ATOM     18  C   UNL     1       6.611  39.055 -16.623  0.00  0.00    +0.000 C 
ATOM     19  C   UNL     1       5.734  37.724 -16.544  0.00  0.00    +0.000 C 
ATOM     20  C   UNL     1       6.754  36.998 -15.409  0.00  0.00    +0.000 C 
ATOM     21  C   UNL     1       5.470  36.656 -14.495  0.00  0.00    +0.000 C 
ATOM     22  C   UNL     1       6.906  35.485 -16.134  0.00  0.00    +0.000 C 
ATOM     23  C   UNL     1       6.710  34.630 -14.769  0.00  0.00    +0.000 C 
ATOM     24  C   UNL     1       5.370  35.343 -16.634  0.00  0.00    +0.000 C 
ATOM     25  C   UNL     1       5.730  35.823 -18.049  0.00  0.00    +0.000 C 
ATOM     26  C   UNL     1       6.384  37.146 -17.909  0.00  0.00    +0.000 C 
ATOM     30  C   UNL     1       5.611  38.046 -18.894  0.00  0.00    +0.000 C 
ATOM     31  C   UNL     1       6.211  39.454 -18.920  0.00  0.00    +0.000 C 
ATOM     32  C   UNL     1       5.919  39.989 -17.564  0.00  0.00    +0.000 C 
ATOM     33  C   UNL     1       4.399  39.895 -17.440  0.00  0.00    +0.000 C 
ATOM     34  C   UNL     1       6.658  45.294 -16.225  0.00  0.00    +0.000 C 
ATOM     35  C   UNL     1       5.302  45.797 -15.868  0.00  0.00    +0.000 C 
ATOM     36  C   UNL     1       7.388  46.176 -17.175  0.00  0.00    +0.000 C 
ENDROOT
BRANCH  26  27
ATOM     27  C   UNL     1       7.741  37.365 -18.097  0.00  0.00    +0.000 C 
ATOM     28  O   UNL     1       8.255  36.916 -19.183  0.00  0.00    +0.000 OA
ATOM     29  O   UNL     1       8.826  37.719 -17.316  0.00  0.00    +0.000 OA
ENDBRANCH  26  27
BRANCH   5   4
ATOM      4  O   UNL     1       7.658  46.679 -14.730  0.00  0.00    +0.000 OA
BRANCH   4   2
ATOM      1  C   UNL     1       7.416  46.190 -12.469  0.00  0.00    +0.000 C 
ATOM      2  C   UNL     1       7.683  47.040 -13.379  0.00  0.00    +0.000 C 
ATOM      3  O   UNL     1       8.073  48.185 -12.995  0.00  0.00    +0.000 OA
ENDBRANCH   4   2
ENDBRANCH   5   4
TORSDOF 3
ENDMDL
MODEL 6
REMARK VINA RESULT:      -7.1     20.266     23.486
REMARK  Name = 
REMARK  3 active torsions:
REMARK  status: ('A' for Active; 'I' for Inactive)
REMARK    1  A    between atoms: C_2  and  O_4
REMARK    2  A    between atoms: O_4  and  C_5
REMARK    3  A    between atoms: C_26  and  C_27
REMARK                            x       y       z     vdW  Elec       q    Type
REMARK                         _______ _______ _______ _____ _____    ______ ____
ROOT
ATOM      5  C   UNL     1       8.335  54.697  22.997  0.00  0.00    +0.000 C 
ATOM      6  C   UNL     1       7.111  55.581  23.661  0.00  0.00    +0.000 C 
ATOM      7  C   UNL     1       5.853  55.040  23.055  0.00  0.00    +0.000 C 
ATOM      8  C   UNL     1       6.175  53.961  22.081  0.00  0.00    +0.000 C 
ATOM      9  C   UNL     1       7.030  54.249  20.970  0.00  0.00    +0.000 C 
ATOM     10  C   UNL     1       6.620  52.706  23.006  0.00  0.00    +0.000 C 
ATOM     11  C   UNL     1       7.478  52.011  21.793  0.00  0.00    +0.000 C 
ATOM     12  C   UNL     1       6.357  51.714  20.845  0.00  0.00    +0.000 C 
ATOM     13  C   UNL     1       5.002  51.945  21.292  0.00  0.00    +0.000 C 
ATOM     14  C   UNL     1       4.576  51.180  22.548  0.00  0.00    +0.000 C 
ATOM     15  C   UNL     1       4.676  53.503  21.606  0.00  0.00    +0.000 C 
ATOM     16  C   UNL     1       4.888  54.111  20.110  0.00  0.00    +0.000 C 
ATOM     17  C   UNL     1       4.783  53.135  19.077  0.00  0.00    +0.000 C 
ATOM     18  C   UNL     1       3.792  52.298  19.163  0.00  0.00    +0.000 C 
ATOM     19  C   UNL     1       3.396  51.388  17.914  0.00  0.00    +0.000 C 
ATOM     20  C   UNL     1       3.252  52.708  16.869  0.00  0.00    +0.000 C 
ATOM     21  C   UNL     1       4.192  51.948  15.802  0.00  0.00    +0.000 C 
ATOM     22  C   UNL     1       1.772  52.315  16.165  0.00  0.00    +0.000 C 
ATOM     23  C   UNL     1       2.222  52.651  14.643  0.00  0.00    +0.000 C 
ATOM     24  C   UNL     1       2.018  50.715  16.054  0.00  0.00    +0.000 C 
ATOM     25  C   UNL     1       1.232  50.452  17.349  0.00  0.00    +0.000 C 
ATOM     26  C   UNL     1       1.862  51.264  18.417  0.00  0.00    +0.000 C 
ATOM     30  C   UNL     1       2.107  50.253  19.554  0.00  0.00    +0.000 C 
ATOM     31  C   UNL     1       2.705  50.953  20.778  0.00  0.00    +0.000 C 
ATOM     32  C   UNL     1       4.052  51.383  20.318  0.00  0.00    +0.000 C 
ATOM     33  C   UNL     1       4.729  50.087  19.871  0.00  0.00    +0.000 C 
ATOM     34  C   UNL     1       7.901  53.335  23.760  0.00  0.00    +0.000 C 
ATOM     35  C   UNL     1       9.031  52.368  23.668  0.00  0.00    +0.000 C 
ATOM     36  C   UNL     1       7.510  53.661  25.158  0.00  0.00    +0.000 C 
ENDROOT
BRANCH  26  27
ATOM     27  C   UNL     1       1.291  52.403  18.965  0.00  0.00    +0.000 C 
ATOM     28  O   UNL     1       0.032  52.360  19.206  0.00  0.00    +0.000 OA
ATOM     29  O   UNL     1       1.630  53.736  19.111  0.00  0.00    +0.000 OA
ENDBRANCH  26  27
BRANCH   5   4
ATOM      4  O   UNL     1       9.309  55.076  24.128  0.00  0.00    +0.000 OA
BRANCH   4   2
ATOM      1  C   UNL     1      11.576  55.598  24.086  0.00  0.00    +0.000 C 
ATOM      2  C   UNL     1      10.410  55.757  23.598  0.00  0.00    +0.000 C 
ATOM      3  O   UNL     1      10.321  56.470  22.551  0.00  0.00    +0.000 OA
ENDBRANCH   4   2
ENDBRANCH   5   4
TORSDOF 3
ENDMDL
MODEL 7
REMARK VINA RESULT:      -7.0     30.843     33.337
REMARK  Name = 
REMARK  3 active torsions:
REMARK  status: ('A' for Active; 'I' for Inactive)
REMARK    1  A    between atoms: C_2  and  O_4
REMARK    2  A    between atoms: O_4  and  C_5
REMARK    3  A    between atoms: C_26  and  C_27
REMARK                            x       y       z     vdW  Elec       q    Type
REMARK                         _______ _______ _______ _____ _____    ______ ____
ROOT
ATOM      5  C   UNL     1      15.820  59.476 -17.062  0.00  0.00    +0.000 C 
ATOM      6  C   UNL     1      16.000  57.875 -17.416  0.00  0.00    +0.000 C 
ATOM      7  C   UNL     1      14.623  57.290 -17.332  0.00  0.00    +0.000 C 
ATOM      8  C   UNL     1      13.644  58.338 -16.937  0.00  0.00    +0.000 C 
ATOM      9  C   UNL     1      13.825  59.042 -15.704  0.00  0.00    +0.000 C 
ATOM     10  C   UNL     1      13.491  59.264 -18.260  0.00  0.00    +0.000 C 
ATOM     11  C   UNL     1      12.972  60.558 -17.394  0.00  0.00    +0.000 C 
ATOM     12  C   UNL     1      11.681  59.998 -16.878  0.00  0.00    +0.000 C 
ATOM     13  C   UNL     1      11.247  58.710 -17.367  0.00  0.00    +0.000 C 
ATOM     14  C   UNL     1      11.065  58.600 -18.883  0.00  0.00    +0.000 C 
ATOM     15  C   UNL     1      12.242  57.492 -16.965  0.00  0.00    +0.000 C 
ATOM     16  C   UNL     1      12.085  57.563 -15.345  0.00  0.00    +0.000 C 
ATOM     17  C   UNL     1      10.896  58.222 -14.916  0.00  0.00    +0.000 C 
ATOM     18  C   UNL     1       9.797  57.904 -15.533  0.00  0.00    +0.000 C 
ATOM     19  C   UNL     1       8.383  58.330 -14.928  0.00  0.00    +0.000 C 
ATOM     20  C   UNL     1       8.700  57.627 -13.425  0.00  0.00    +0.000 C 
ATOM     21  C   UNL     1       8.252  58.999 -12.705  0.00  0.00    +0.000 C 
ATOM     22  C   UNL     1       7.248  56.797 -13.221  0.00  0.00    +0.000 C 
ATOM     23  C   UNL     1       7.036  57.220 -11.668  0.00  0.00    +0.000 C 
ATOM     24  C   UNL     1       6.272  57.940 -13.831  0.00  0.00    +0.000 C 
ATOM     25  C   UNL     1       6.232  57.247 -15.203  0.00  0.00    +0.000 C 
ATOM     26  C   UNL     1       7.634  57.095 -15.659  0.00  0.00    +0.000 C 
ATOM     30  C   UNL     1       7.624  57.683 -17.084  0.00  0.00    +0.000 C 
ATOM     31  C   UNL     1       9.004  57.544 -17.732  0.00  0.00    +0.000 C 
ATOM     32  C   UNL     1       9.868  58.445 -16.925  0.00  0.00    +0.000 C 
ATOM     33  C   UNL     1       9.194  59.813 -17.036  0.00  0.00    +0.000 C 
ATOM     34  C   UNL     1      15.007  59.790 -18.428  0.00  0.00    +0.000 C 
ATOM     35  C   UNL     1      14.981  61.267 -18.625  0.00  0.00    +0.000 C 
ATOM     36  C   UNL     1      15.639  59.051 -19.554  0.00  0.00    +0.000 C 
ENDROOT
BRANCH  26  27
ATOM     27  C   UNL     1       8.312  55.885 -15.694  0.00  0.00    +0.000 C 
ATOM     28  O   UNL     1       7.723  54.909 -16.281  0.00  0.00    +0.000 OA
ATOM     29  O   UNL     1       9.381  55.306 -15.036  0.00  0.00    +0.000 OA
ENDBRANCH  26  27
BRANCH   5   4
ATOM      4  O   UNL     1      17.163  59.838 -17.722  0.00  0.00    +0.000 OA
BRANCH   4   2
ATOM      1  C   UNL     1      17.619  60.708 -15.613  0.00  0.00    +0.000 C 
ATOM      2  C   UNL     1      17.930  60.612 -16.844  0.00  0.00    +0.000 C 
ATOM      3  O   UNL     1      19.019  61.158 -17.203  0.00  0.00    +0.000 OA
ENDBRANCH   4   2
ENDBRANCH   5   4
TORSDOF 3
ENDMDL
MODEL 8
REMARK VINA RESULT:      -7.0     28.153     31.025
REMARK  Name = 
REMARK  3 active torsions:
REMARK  status: ('A' for Active; 'I' for Inactive)
REMARK    1  A    between atoms: C_2  and  O_4
REMARK    2  A    between atoms: O_4  and  C_5
REMARK    3  A    between atoms: C_26  and  C_27
REMARK                            x       y       z     vdW  Elec       q    Type
REMARK                         _______ _______ _______ _____ _____    ______ ____
ROOT
ATOM      5  C   UNL     1      25.636  35.587  18.513  0.00  0.00    +0.000 C 
ATOM      6  C   UNL     1      27.262  35.719  18.268  0.00  0.00    +0.000 C 
ATOM      7  C   UNL     1      27.589  37.158  18.529  0.00  0.00    +0.000 C 
ATOM      8  C   UNL     1      26.352  37.912  18.867  0.00  0.00    +0.000 C 
ATOM      9  C   UNL     1      25.268  37.940  17.933  0.00  0.00    +0.000 C 
ATOM     10  C   UNL     1      25.977  37.418  20.365  0.00  0.00    +0.000 C 
ATOM     11  C   UNL     1      24.399  37.830  20.195  0.00  0.00    +0.000 C 
ATOM     12  C   UNL     1      24.552  39.314  20.052  0.00  0.00    +0.000 C 
ATOM     13  C   UNL     1      25.862  39.890  20.250  0.00  0.00    +0.000 C 
ATOM     14  C   UNL     1      26.507  39.627  21.613  0.00  0.00    +0.000 C 
ATOM     15  C   UNL     1      26.958  39.406  19.156  0.00  0.00    +0.000 C 
ATOM     16  C   UNL     1      26.265  40.022  17.816  0.00  0.00    +0.000 C 
ATOM     17  C   UNL     1      25.346  41.078  18.084  0.00  0.00    +0.000 C 
ATOM     18  C   UNL     1      25.727  41.982  18.937  0.00  0.00    +0.000 C 
ATOM     19  C   UNL     1      24.926  43.356  19.064  0.00  0.00    +0.000 C 
ATOM     20  C   UNL     1      25.049  43.698  17.413  0.00  0.00    +0.000 C 
ATOM     21  C   UNL     1      23.462  43.980  17.368  0.00  0.00    +0.000 C 
ATOM     22  C   UNL     1      25.547  45.304  17.522  0.00  0.00    +0.000 C 
ATOM     23  C   UNL     1      24.550  45.861  16.370  0.00  0.00    +0.000 C 
ATOM     24  C   UNL     1      24.600  45.726  18.770  0.00  0.00    +0.000 C 
ATOM     25  C   UNL     1      25.745  45.524  19.776  0.00  0.00    +0.000 C 
ATOM     26  C   UNL     1      26.236  44.136  19.606  0.00  0.00    +0.000 C 
ATOM     30  C   UNL     1      26.230  43.565  21.038  0.00  0.00    +0.000 C 
ATOM     31  C   UNL     1      26.779  42.136  21.050  0.00  0.00    +0.000 C 
ATOM     32  C   UNL     1      25.761  41.358  20.296  0.00  0.00    +0.000 C 
ATOM     33  C   UNL     1      24.459  41.598  21.061  0.00  0.00    +0.000 C 
ATOM     34  C   UNL     1      25.754  35.841  20.109  0.00  0.00    +0.000 C 
ATOM     35  C   UNL     1      24.469  35.432  20.742  0.00  0.00    +0.000 C 
ATOM     36  C   UNL     1      26.936  35.107  20.635  0.00  0.00    +0.000 C 
ENDROOT
BRANCH  26  27
ATOM     27  C   UNL     1      27.448  43.808  19.015  0.00  0.00    +0.000 C 
ATOM     28  O   UNL     1      28.490  44.408  19.462  0.00  0.00    +0.000 OA
ATOM     29  O   UNL     1      27.872  43.182  17.858  0.00  0.00    +0.000 OA
ENDBRANCH  26  27
BRANCH   5   4
ATOM      4  O   UNL     1      25.724  34.061  18.701  0.00  0.00    +0.000 OA
BRANCH   4   2
ATOM      1  C   UNL     1      24.468  33.971  16.745  0.00  0.00    +0.000 C 
ATOM      2  C   UNL     1      25.293  33.413  17.539  0.00  0.00    +0.000 C 
ATOM      3  O   UNL     1      25.778  32.300  17.168  0.00  0.00    +0.000 OA
ENDBRANCH   4   2
ENDBRANCH   5   4
TORSDOF 3
ENDMDL
MODEL 9
REMARK VINA RESULT:      -7.0      1.744      8.235
REMARK  Name = 
REMARK  3 active torsions:
REMARK  status: ('A' for Active; 'I' for Inactive)
REMARK    1  A    between atoms: C_2  and  O_4
REMARK    2  A    between atoms: O_4  and  C_5
REMARK    3  A    between atoms: C_26  and  C_27
REMARK                            x       y       z     vdW  Elec       q    Type
REMARK                         _______ _______ _______ _____ _____    ______ ____
ROOT
ATOM      5  C   UNL     1      19.006  67.067  10.891  0.00  0.00    +0.000 C 
ATOM      6  C   UNL     1      19.761  65.792  11.618  0.00  0.00    +0.000 C 
ATOM      7  C   UNL     1      20.658  66.397  12.654  0.00  0.00    +0.000 C 
ATOM      8  C   UNL     1      20.559  67.882  12.615  0.00  0.00    +0.000 C 
ATOM      9  C   UNL     1      20.870  68.575  11.402  0.00  0.00    +0.000 C 
ATOM     10  C   UNL     1      19.106  68.205  13.257  0.00  0.00    +0.000 C 
ATOM     11  C   UNL     1      19.012  69.666  12.516  0.00  0.00    +0.000 C 
ATOM     12  C   UNL     1      20.156  70.354  13.196  0.00  0.00    +0.000 C 
ATOM     13  C   UNL     1      20.816  69.673  14.286  0.00  0.00    +0.000 C 
ATOM     14  C   UNL     1      19.924  69.284  15.467  0.00  0.00    +0.000 C 
ATOM     15  C   UNL     1      21.561  68.301  13.841  0.00  0.00    +0.000 C 
ATOM     16  C   UNL     1      22.661  68.932  12.819  0.00  0.00    +0.000 C 
ATOM     17  C   UNL     1      22.912  70.318  13.036  0.00  0.00    +0.000 C 
ATOM     18  C   UNL     1      23.067  70.698  14.269  0.00  0.00    +0.000 C 
ATOM     19  C   UNL     1      23.663  72.141  14.598  0.00  0.00    +0.000 C 
ATOM     20  C   UNL     1      25.038  71.902  13.645  0.00  0.00    +0.000 C 
ATOM     21  C   UNL     1      24.770  73.321  12.927  0.00  0.00    +0.000 C 
ATOM     22  C   UNL     1      26.203  72.435  14.740  0.00  0.00    +0.000 C 
ATOM     23  C   UNL     1      27.044  73.314  13.666  0.00  0.00    +0.000 C 
ATOM     24  C   UNL     1      25.360  73.684  15.342  0.00  0.00    +0.000 C 
ATOM     25  C   UNL     1      24.902  72.857  16.555  0.00  0.00    +0.000 C 
ATOM     26  C   UNL     1      24.230  71.645  16.030  0.00  0.00    +0.000 C 
ATOM     30  C   UNL     1      22.882  71.617  16.778  0.00  0.00    +0.000 C 
ATOM     31  C   UNL     1      22.079  70.372  16.393  0.00  0.00    +0.000 C 
ATOM     32  C   UNL     1      21.745  70.593  14.962  0.00  0.00    +0.000 C 
ATOM     33  C   UNL     1      20.994  71.924  14.950  0.00  0.00    +0.000 C 
ATOM     34  C   UNL     1      18.144  67.439  12.212  0.00  0.00    +0.000 C 
ATOM     35  C   UNL     1      17.048  68.364  11.808  0.00  0.00    +0.000 C 
ATOM     36  C   UNL     1      17.660  66.186  12.850  0.00  0.00    +0.000 C 
ENDROOT
BRANCH  26  27
ATOM     27  C   UNL     1      24.778  70.371  16.078  0.00  0.00    +0.000 C 
ATOM     28  O   UNL     1      25.200  69.966  17.219  0.00  0.00    +0.000 OA
ATOM     29  O   UNL     1      25.265  69.445  15.174  0.00  0.00    +0.000 OA
ENDBRANCH  26  27
BRANCH   5   4
ATOM      4  O   UNL     1      17.877  66.171  10.349  0.00  0.00    +0.000 OA
BRANCH   4   2
ATOM      1  C   UNL     1      17.119  65.412   8.285  0.00  0.00    +0.000 C 
ATOM      2  C   UNL     1      17.967  66.084   8.956  0.00  0.00    +0.000 C 
ATOM      3  O   UNL     1      18.820  66.751   8.293  0.00  0.00    +0.000 OA
ENDBRANCH   4   2
ENDBRANCH   5   4
TORSDOF 3
ENDMDL
MODEL 10
REMARK VINA RESULT:      -6.8     32.801     37.761
REMARK  Name = 
REMARK  3 active torsions:
REMARK  status: ('A' for Active; 'I' for Inactive)
REMARK    1  A    between atoms: C_2  and  O_4
REMARK    2  A    between atoms: O_4  and  C_5
REMARK    3  A    between atoms: C_26  and  C_27
REMARK                            x       y       z     vdW  Elec       q    Type
REMARK                         _______ _______ _______ _____ _____    ______ ____
ROOT
ATOM      5  C   UNL     1      14.693  58.481 -18.161  0.00  0.00    +0.000 C 
ATOM      6  C   UNL     1      15.934  59.442 -17.655  0.00  0.00    +0.000 C 
ATOM      7  C   UNL     1      16.866  59.541 -18.824  0.00  0.00    +0.000 C 
ATOM      8  C   UNL     1      16.351  58.728 -19.960  0.00  0.00    +0.000 C 
ATOM      9  C   UNL     1      16.130  57.326 -19.778  0.00  0.00    +0.000 C 
ATOM     10  C   UNL     1      15.085  59.574 -20.518  0.00  0.00    +0.000 C 
ATOM     11  C   UNL     1      14.399  58.251 -21.204  0.00  0.00    +0.000 C 
ATOM     12  C   UNL     1      15.443  57.946 -22.235  0.00  0.00    +0.000 C 
ATOM     13  C   UNL     1      16.527  58.885 -22.412  0.00  0.00    +0.000 C 
ATOM     14  C   UNL     1      16.118  60.314 -22.778  0.00  0.00    +0.000 C 
ATOM     15  C   UNL     1      17.481  59.032 -21.107  0.00  0.00    +0.000 C 
ATOM     16  C   UNL     1      18.056  57.510 -21.043  0.00  0.00    +0.000 C 
ATOM     17  C   UNL     1      17.959  56.811 -22.281  0.00  0.00    +0.000 C 
ATOM     18  C   UNL     1      18.319  57.460 -23.348  0.00  0.00    +0.000 C 
ATOM     19  C   UNL     1      18.554  56.682 -24.722  0.00  0.00    +0.000 C 
ATOM     20  C   UNL     1      19.643  55.588 -24.033  0.00  0.00    +0.000 C 
ATOM     21  C   UNL     1      18.814  54.371 -24.690  0.00  0.00    +0.000 C 
ATOM     22  C   UNL     1      20.857  55.671 -25.199  0.00  0.00    +0.000 C 
ATOM     23  C   UNL     1      21.110  54.070 -25.282  0.00  0.00    +0.000 C 
ATOM     24  C   UNL     1      19.887  55.745 -26.498  0.00  0.00    +0.000 C 
ATOM     25  C   UNL     1      20.010  57.277 -26.566  0.00  0.00    +0.000 C 
ATOM     26  C   UNL     1      19.589  57.809 -25.249  0.00  0.00    +0.000 C 
ATOM     30  C   UNL     1      18.546  58.887 -25.603  0.00  0.00    +0.000 C 
ATOM     31  C   UNL     1      18.049  59.591 -24.337  0.00  0.00    +0.000 C 
ATOM     32  C   UNL     1      17.306  58.529 -23.609  0.00  0.00    +0.000 C 
ATOM     33  C   UNL     1      16.238  58.068 -24.601  0.00  0.00    +0.000 C 
ATOM     34  C   UNL     1      14.137  59.582 -19.213  0.00  0.00    +0.000 C 
ATOM     35  C   UNL     1      12.760  59.182 -19.621  0.00  0.00    +0.000 C 
ATOM     36  C   UNL     1      14.204  60.931 -18.590  0.00  0.00    +0.000 C 
ENDROOT
BRANCH  26  27
ATOM     27  C   UNL     1      20.463  58.342 -24.312  0.00  0.00    +0.000 C 
ATOM     28  O   UNL     1      21.243  59.277 -24.715  0.00  0.00    +0.000 OA
ATOM     29  O   UNL     1      20.954  57.987 -23.070  0.00  0.00    +0.000 OA
ENDBRANCH  26  27
BRANCH   5   4
ATOM      4  O   UNL     1      13.757  58.998 -17.053  0.00  0.00    +0.000 OA
BRANCH   4   2
ATOM      1  C   UNL     1      12.307  57.331 -16.324  0.00  0.00    +0.000 C 
ATOM      2  C   UNL     1      13.413  57.948 -16.195  0.00  0.00    +0.000 C 
ATOM      3  O   UNL     1      14.222  57.494 -15.329  0.00  0.00    +0.000 OA
ENDBRANCH   4   2
ENDBRANCH   5   4
TORSDOF 3
ENDMDL
