MODEL 1
REMARK VINA RESULT:      -7.9      0.000      0.000
REMARK  Name = 
REMARK  3 active torsions:
REMARK  status: ('A' for Active; 'I' for Inactive)
REMARK    1  A    between atoms: C_2  and  O_4
REMARK    2  A    between atoms: O_4  and  C_5
REMARK    3  A    between atoms: C_26  and  C_27
REMARK                            x       y       z     vdW  Elec       q    Type
REMARK                         _______ _______ _______ _____ _____    ______ ____
ROOT
ATOM      5  C   UNL     1      23.419  71.881  15.899  0.00  0.00    +0.000 C 
ATOM      6  C   UNL     1      22.946  71.939  14.327  0.00  0.00    +0.000 C 
ATOM      7  C   UNL     1      21.976  70.915  14.003  0.00  0.00    +0.000 C 
ATOM      8  C   UNL     1      21.144  70.538  14.994  0.00  0.00    +0.000 C 
ATOM      9  C   UNL     1      20.486  71.863  15.465  0.00  0.00    +0.000 C 
ATOM     10  C   UNL     1      21.718  70.138  16.445  0.00  0.00    +0.000 C 
ATOM     11  C   UNL     1      21.683  68.511  16.310  0.00  0.00    +0.000 C 
ATOM     12  C   UNL     1      21.706  68.098  14.928  0.00  0.00    +0.000 C 
ATOM     13  C   UNL     1      20.406  68.281  14.338  0.00  0.00    +0.000 C 
ATOM     14  C   UNL     1      19.392  67.494  15.179  0.00  0.00    +0.000 C 
ATOM     15  C   UNL     1      19.783  69.734  14.715  0.00  0.00    +0.000 C 
ATOM     16  C   UNL     1      19.713  70.226  13.151  0.00  0.00    +0.000 C 
ATOM     17  C   UNL     1      18.605  69.317  12.666  0.00  0.00    +0.000 C 
ATOM     18  C   UNL     1      18.867  68.005  12.461  0.00  0.00    +0.000 C 
ATOM     19  C   UNL     1      18.686  67.564  10.924  0.00  0.00    +0.000 C 
ATOM     20  C   UNL     1      17.039  67.240  11.133  0.00  0.00    +0.000 C 
ATOM     21  C   UNL     1      16.697  68.255   9.931  0.00  0.00    +0.000 C 
ATOM     22  C   UNL     1      16.940  65.811  10.241  0.00  0.00    +0.000 C 
ATOM     23  C   UNL     1      15.591  66.198   9.424  0.00  0.00    +0.000 C 
ATOM     24  C   UNL     1      17.947  66.253   9.047  0.00  0.00    +0.000 C 
ATOM     25  C   UNL     1      19.151  65.539   9.680  0.00  0.00    +0.000 C 
ATOM     26  C   UNL     1      19.252  66.061  11.084  0.00  0.00    +0.000 C 
ATOM     30  C   UNL     1      20.743  66.224  11.354  0.00  0.00    +0.000 C 
ATOM     31  C   UNL     1      20.793  66.471  12.865  0.00  0.00    +0.000 C 
ATOM     32  C   UNL     1      20.280  67.881  12.977  0.00  0.00    +0.000 C 
ATOM     33  C   UNL     1      21.071  68.637  11.918  0.00  0.00    +0.000 C 
ATOM     34  C   UNL     1      23.290  70.258  16.034  0.00  0.00    +0.000 C 
ATOM     35  C   UNL     1      23.852  69.516  15.028  0.00  0.00    +0.000 C 
ATOM     36  C   UNL     1      23.931  69.881  17.365  0.00  0.00    +0.000 C 
ENDROOT
BRANCH  26  27
ATOM     27  C   UNL     1      18.666  65.339  12.146  0.00  0.00    +0.000 C 
ATOM     28  O   UNL     1      19.300  64.294  12.496  0.00  0.00    +0.000 OA
ATOM     29  O   UNL     1      17.835  65.808  13.170  0.00  0.00    +0.000 OA
ENDBRANCH  26  27
BRANCH   5   4
ATOM      4  O   UNL     1      24.898  71.825  15.457  0.00  0.00    +0.000 OA
BRANCH   4   2
ATOM      1  C   UNL     1      24.957  74.337  15.878  0.00  0.00    +0.000 C 
ATOM      2  C   UNL     1      25.593  72.988  15.805  0.00  0.00    +0.000 C 
ATOM      3  O   UNL     1      26.758  72.765  16.213  0.00  0.00    +0.000 OA
ENDBRANCH   4   2
ENDBRANCH   5   4
TORSDOF 3
ENDMDL
MODEL 2
REMARK VINA RESULT:      -7.7     16.280     19.827
REMARK  Name = 
REMARK  3 active torsions:
REMARK  status: ('A' for Active; 'I' for Inactive)
REMARK    1  A    between atoms: C_2  and  O_4
REMARK    2  A    between atoms: O_4  and  C_5
REMARK    3  A    between atoms: C_26  and  C_27
REMARK                            x       y       z     vdW  Elec       q    Type
REMARK                         _______ _______ _______ _____ _____    ______ ____
ROOT
ATOM      5  C   UNL     1       1.701  61.639   9.642  0.00  0.00    +0.000 C 
ATOM      6  C   UNL     1       3.236  61.671  10.223  0.00  0.00    +0.000 C 
ATOM      7  C   UNL     1       4.152  60.900   9.409  0.00  0.00    +0.000 C 
ATOM      8  C   UNL     1       3.880  60.838   8.090  0.00  0.00    +0.000 C 
ATOM      9  C   UNL     1       3.786  62.324   7.650  0.00  0.00    +0.000 C 
ATOM     10  C   UNL     1       2.408  60.440   7.570  0.00  0.00    +0.000 C 
ATOM     11  C   UNL     1       2.667  58.870   7.205  0.00  0.00    +0.000 C 
ATOM     12  C   UNL     1       3.794  58.340   7.932  0.00  0.00    +0.000 C 
ATOM     13  C   UNL     1       5.022  58.791   7.333  0.00  0.00    +0.000 C 
ATOM     14  C   UNL     1       5.011  58.367   5.858  0.00  0.00    +0.000 C 
ATOM     15  C   UNL     1       4.973  60.382   7.007  0.00  0.00    +0.000 C 
ATOM     16  C   UNL     1       6.230  60.731   8.004  0.00  0.00    +0.000 C 
ATOM     17  C   UNL     1       7.347  60.092   7.209  0.00  0.00    +0.000 C 
ATOM     18  C   UNL     1       7.461  58.742   7.194  0.00  0.00    +0.000 C 
ATOM     19  C   UNL     1       8.835  58.223   7.849  0.00  0.00    +0.000 C 
ATOM     20  C   UNL     1       9.668  58.346   6.383  0.00  0.00    +0.000 C 
ATOM     21  C   UNL     1      10.755  59.301   7.091  0.00  0.00    +0.000 C 
ATOM     22  C   UNL     1      10.556  56.914   6.466  0.00  0.00    +0.000 C 
ATOM     23  C   UNL     1      11.979  57.553   6.016  0.00  0.00    +0.000 C 
ATOM     24  C   UNL     1      10.882  56.975   8.056  0.00  0.00    +0.000 C 
ATOM     25  C   UNL     1       9.718  56.041   8.419  0.00  0.00    +0.000 C 
ATOM     26  C   UNL     1       8.491  56.647   7.801  0.00  0.00    +0.000 C 
ATOM     30  C   UNL     1       7.378  56.451   8.824  0.00  0.00    +0.000 C 
ATOM     31  C   UNL     1       6.118  56.815   8.034  0.00  0.00    +0.000 C 
ATOM     32  C   UNL     1       6.220  58.313   7.937  0.00  0.00    +0.000 C 
ATOM     33  C   UNL     1       6.540  58.745   9.363  0.00  0.00    +0.000 C 
ATOM     34  C   UNL     1       1.797  60.120   9.046  0.00  0.00    +0.000 C 
ATOM     35  C   UNL     1       2.330  59.172   9.880  0.00  0.00    +0.000 C 
ATOM     36  C   UNL     1       0.380  59.718   8.654  0.00  0.00    +0.000 C 
ENDROOT
BRANCH  26  27
ATOM     27  C   UNL     1       8.044  56.197   6.541  0.00  0.00    +0.000 C 
ATOM     28  O   UNL     1       7.422  55.088   6.558  0.00  0.00    +0.000 OA
ATOM     29  O   UNL     1       7.727  56.950   5.404  0.00  0.00    +0.000 OA
ENDBRANCH  26  27
BRANCH   5   4
ATOM      4  O   UNL     1       1.183  61.171  11.020  0.00  0.00    +0.000 OA
BRANCH   4   2
ATOM      1  C   UNL     1      -0.236  63.280  10.862  0.00  0.00    +0.000 C 
ATOM      2  C   UNL     1       0.310  62.100  11.596  0.00  0.00    +0.000 C 
ATOM      3  O   UNL     1      -0.102  61.755  12.729  0.00  0.00    +0.000 OA
ENDBRANCH   4   2
ENDBRANCH   5   4
TORSDOF 3
ENDMDL
MODEL 3
REMARK VINA RESULT:      -7.7     16.576     19.841
REMARK  Name = 
REMARK  3 active torsions:
REMARK  status: ('A' for Active; 'I' for Inactive)
REMARK    1  A    between atoms: C_2  and  O_4
REMARK    2  A    between atoms: O_4  and  C_5
REMARK    3  A    between atoms: C_26  and  C_27
REMARK                            x       y       z     vdW  Elec       q    Type
REMARK                         _______ _______ _______ _____ _____    ______ ____
ROOT
ATOM      5  C   UNL     1       8.892  56.984   6.992  0.00  0.00    +0.000 C 
ATOM      6  C   UNL     1       7.615  56.613   7.956  0.00  0.00    +0.000 C 
ATOM      7  C   UNL     1       6.541  57.578   7.846  0.00  0.00    +0.000 C 
ATOM      8  C   UNL     1       6.392  58.179   6.649  0.00  0.00    +0.000 C 
ATOM      9  C   UNL     1       6.251  57.002   5.645  0.00  0.00    +0.000 C 
ATOM     10  C   UNL     1       7.650  58.855   5.904  0.00  0.00    +0.000 C 
ATOM     11  C   UNL     1       7.388  60.418   6.297  0.00  0.00    +0.000 C 
ATOM     12  C   UNL     1       6.579  60.533   7.485  0.00  0.00    +0.000 C 
ATOM     13  C   UNL     1       5.200  60.272   7.168  0.00  0.00    +0.000 C 
ATOM     14  C   UNL     1       4.778  61.248   6.063  0.00  0.00    +0.000 C 
ATOM     15  C   UNL     1       5.046  58.950   6.235  0.00  0.00    +0.000 C 
ATOM     16  C   UNL     1       4.144  58.144   7.344  0.00  0.00    +0.000 C 
ATOM     17  C   UNL     1       2.876  58.966   7.261  0.00  0.00    +0.000 C 
ATOM     18  C   UNL     1       2.847  60.198   7.822  0.00  0.00    +0.000 C 
ATOM     19  C   UNL     1       1.781  60.314   9.021  0.00  0.00    +0.000 C 
ATOM     20  C   UNL     1       0.526  60.726   7.964  0.00  0.00    +0.000 C 
ATOM     21  C   UNL     1      -0.343  59.494   8.530  0.00  0.00    +0.000 C 
ATOM     22  C   UNL     1      -0.202  61.940   8.885  0.00  0.00    +0.000 C 
ATOM     23  C   UNL     1      -1.730  61.434   8.681  0.00  0.00    +0.000 C 
ATOM     24  C   UNL     1      -0.019  61.227  10.332  0.00  0.00    +0.000 C 
ATOM     25  C   UNL     1       1.256  62.019  10.659  0.00  0.00    +0.000 C 
ATOM     26  C   UNL     1       2.189  61.798   9.503  0.00  0.00    +0.000 C 
ATOM     30  C   UNL     1       3.575  61.649  10.120  0.00  0.00    +0.000 C 
ATOM     31  C   UNL     1       4.502  61.720   8.903  0.00  0.00    +0.000 C 
ATOM     32  C   UNL     1       4.282  60.382   8.251  0.00  0.00    +0.000 C 
ATOM     33  C   UNL     1       4.395  59.397   9.407  0.00  0.00    +0.000 C 
ATOM     34  C   UNL     1       8.709  58.602   7.116  0.00  0.00    +0.000 C 
ATOM     35  C   UNL     1       8.522  59.100   8.379  0.00  0.00    +0.000 C 
ATOM     36  C   UNL     1       9.956  59.227   6.501  0.00  0.00    +0.000 C 
ENDROOT
BRANCH  26  27
ATOM     27  C   UNL     1       2.249  62.744   8.458  0.00  0.00    +0.000 C 
ATOM     28  O   UNL     1       2.826  63.836   8.757  0.00  0.00    +0.000 OA
ATOM     29  O   UNL     1       2.243  62.522   7.075  0.00  0.00    +0.000 OA
ENDBRANCH  26  27
BRANCH   5   4
ATOM      4  O   UNL     1       9.841  56.899   8.209  0.00  0.00    +0.000 OA
BRANCH   4   2
ATOM      1  C   UNL     1      11.451  55.746   6.607  0.00  0.00    +0.000 C 
ATOM      2  C   UNL     1      10.923  56.044   7.971  0.00  0.00    +0.000 C 
ATOM      3  O   UNL     1      11.510  55.688   9.020  0.00  0.00    +0.000 OA
ENDBRANCH   4   2
ENDBRANCH   5   4
TORSDOF 3
ENDMDL
MODEL 4
REMARK VINA RESULT:      -7.6      1.529      2.211
REMARK  Name = 
REMARK  3 active torsions:
REMARK  status: ('A' for Active; 'I' for Inactive)
REMARK    1  A    between atoms: C_2  and  O_4
REMARK    2  A    between atoms: O_4  and  C_5
REMARK    3  A    between atoms: C_26  and  C_27
REMARK                            x       y       z     vdW  Elec       q    Type
REMARK                         _______ _______ _______ _____ _____    ______ ____
ROOT
ATOM      5  C   UNL     1      25.347  72.537  15.286  0.00  0.00    +0.000 C 
ATOM      6  C   UNL     1      24.712  72.096  13.838  0.00  0.00    +0.000 C 
ATOM      7  C   UNL     1      23.515  71.295  13.980  0.00  0.00    +0.000 C 
ATOM      8  C   UNL     1      22.747  71.545  15.059  0.00  0.00    +0.000 C 
ATOM      9  C   UNL     1      22.448  73.066  14.970  0.00  0.00    +0.000 C 
ATOM     10  C   UNL     1      23.394  71.610  16.533  0.00  0.00    +0.000 C 
ATOM     11  C   UNL     1      22.999  70.119  17.067  0.00  0.00    +0.000 C 
ATOM     12  C   UNL     1      22.767  69.212  15.971  0.00  0.00    +0.000 C 
ATOM     13  C   UNL     1      21.474  69.462  15.390  0.00  0.00    +0.000 C 
ATOM     14  C   UNL     1      20.425  69.333  16.503  0.00  0.00    +0.000 C 
ATOM     15  C   UNL     1      21.223  71.052  15.164  0.00  0.00    +0.000 C 
ATOM     16  C   UNL     1      21.072  70.902  13.536  0.00  0.00    +0.000 C 
ATOM     17  C   UNL     1      19.746  70.175  13.487  0.00  0.00    +0.000 C 
ATOM     18  C   UNL     1      19.697  68.864  13.824  0.00  0.00    +0.000 C 
ATOM     19  C   UNL     1      19.243  67.921  12.602  0.00  0.00    +0.000 C 
ATOM     20  C   UNL     1      17.602  68.113  12.966  0.00  0.00    +0.000 C 
ATOM     21  C   UNL     1      17.340  68.635  11.465  0.00  0.00    +0.000 C 
ATOM     22  C   UNL     1      17.095  66.521  12.729  0.00  0.00    +0.000 C 
ATOM     23  C   UNL     1      15.771  66.877  11.860  0.00  0.00    +0.000 C 
ATOM     24  C   UNL     1      18.022  66.208  11.434  0.00  0.00    +0.000 C 
ATOM     25  C   UNL     1      19.114  65.526  12.271  0.00  0.00    +0.000 C 
ATOM     26  C   UNL     1      19.492  66.509  13.341  0.00  0.00    +0.000 C 
ATOM     30  C   UNL     1      21.005  66.396  13.485  0.00  0.00    +0.000 C 
ATOM     31  C   UNL     1      21.288  67.188  14.765  0.00  0.00    +0.000 C 
ATOM     32  C   UNL     1      21.103  68.611  14.311  0.00  0.00    +0.000 C 
ATOM     33  C   UNL     1      21.903  68.682  13.016  0.00  0.00    +0.000 C 
ATOM     34  C   UNL     1      24.895  71.177  16.069  0.00  0.00    +0.000 C 
ATOM     35  C   UNL     1      25.161  69.991  15.435  0.00  0.00    +0.000 C 
ATOM     36  C   UNL     1      25.597  71.201  17.421  0.00  0.00    +0.000 C 
ENDROOT
BRANCH  26  27
ATOM     27  C   UNL     1      18.899  66.419  14.618  0.00  0.00    +0.000 C 
ATOM     28  O   UNL     1      19.173  65.358  15.262  0.00  0.00    +0.000 OA
ATOM     29  O   UNL     1      18.498  67.454  15.472  0.00  0.00    +0.000 OA
ENDBRANCH  26  27
BRANCH   5   4
ATOM      4  O   UNL     1      26.717  71.958  14.867  0.00  0.00    +0.000 OA
BRANCH   4   2
ATOM      1  C   UNL     1      28.490  73.283  16.126  0.00  0.00    +0.000 C 
ATOM      2  C   UNL     1      27.726  72.926  14.895  0.00  0.00    +0.000 C 
ATOM      3  O   UNL     1      28.043  73.343  13.755  0.00  0.00    +0.000 OA
ENDBRANCH   4   2
ENDBRANCH   5   4
TORSDOF 3
ENDMDL
MODEL 5
REMARK VINA RESULT:      -7.6     36.960     42.623
REMARK  Name = 
REMARK  3 active torsions:
REMARK  status: ('A' for Active; 'I' for Inactive)
REMARK    1  A    between atoms: C_2  and  O_4
REMARK    2  A    between atoms: O_4  and  C_5
REMARK    3  A    between atoms: C_26  and  C_27
REMARK                            x       y       z     vdW  Elec       q    Type
REMARK                         _______ _______ _______ _____ _____    ______ ____
ROOT
ATOM      5  C   UNL     1       7.348  46.011 -14.367  0.00  0.00    +0.000 C 
ATOM      6  C   UNL     1       8.497  44.858 -14.580  0.00  0.00    +0.000 C 
ATOM      7  C   UNL     1       7.985  43.687 -15.260  0.00  0.00    +0.000 C 
ATOM      8  C   UNL     1       6.994  43.892 -16.150  0.00  0.00    +0.000 C 
ATOM      9  C   UNL     1       7.571  44.952 -17.126  0.00  0.00    +0.000 C 
ATOM     10  C   UNL     1       5.694  44.755 -15.751  0.00  0.00    +0.000 C 
ATOM     11  C   UNL     1       4.649  43.541 -15.438  0.00  0.00    +0.000 C 
ATOM     12  C   UNL     1       5.344  42.321 -15.109  0.00  0.00    +0.000 C 
ATOM     13  C   UNL     1       5.860  41.710 -16.306  0.00  0.00    +0.000 C 
ATOM     14  C   UNL     1       4.684  41.486 -17.265  0.00  0.00    +0.000 C 
ATOM     15  C   UNL     1       6.594  42.803 -17.259  0.00  0.00    +0.000 C 
ATOM     16  C   UNL     1       8.053  42.054 -17.171  0.00  0.00    +0.000 C 
ATOM     17  C   UNL     1       7.734  40.817 -17.981  0.00  0.00    +0.000 C 
ATOM     18  C   UNL     1       6.966  39.846 -17.432  0.00  0.00    +0.000 C 
ATOM     19  C   UNL     1       7.747  38.449 -17.270  0.00  0.00    +0.000 C 
ATOM     20  C   UNL     1       7.329  37.948 -18.830  0.00  0.00    +0.000 C 
ATOM     21  C   UNL     1       8.889  37.734 -19.169  0.00  0.00    +0.000 C 
ATOM     22  C   UNL     1       6.961  36.335 -18.496  0.00  0.00    +0.000 C 
ATOM     23  C   UNL     1       7.780  35.697 -19.744  0.00  0.00    +0.000 C 
ATOM     24  C   UNL     1       8.147  36.081 -17.417  0.00  0.00    +0.000 C 
ATOM     25  C   UNL     1       7.226  36.333 -16.214  0.00  0.00    +0.000 C 
ATOM     26  C   UNL     1       6.594  37.675 -16.449  0.00  0.00    +0.000 C 
ATOM     30  C   UNL     1       6.553  38.352 -15.084  0.00  0.00    +0.000 C 
ATOM     31  C   UNL     1       5.651  39.565 -15.330  0.00  0.00    +0.000 C 
ATOM     32  C   UNL     1       6.546  40.475 -16.126  0.00  0.00    +0.000 C 
ATOM     33  C   UNL     1       7.852  40.473 -15.341  0.00  0.00    +0.000 C 
ATOM     34  C   UNL     1       6.110  44.960 -14.189  0.00  0.00    +0.000 C 
ATOM     35  C   UNL     1       6.322  43.909 -13.334  0.00  0.00    +0.000 C 
ATOM     36  C   UNL     1       4.915  45.775 -13.710  0.00  0.00    +0.000 C 
ENDROOT
BRANCH  26  27
ATOM     27  C   UNL     1       5.316  37.755 -17.043  0.00  0.00    +0.000 C 
ATOM     28  O   UNL     1       4.357  37.370 -16.303  0.00  0.00    +0.000 OA
ATOM     29  O   UNL     1       4.875  38.612 -18.058  0.00  0.00    +0.000 OA
ENDBRANCH  26  27
BRANCH   5   4
ATOM      4  O   UNL     1       7.662  46.051 -12.854  0.00  0.00    +0.000 OA
BRANCH   4   2
ATOM      1  C   UNL     1       6.862  47.587 -10.987  0.00  0.00    +0.000 C 
ATOM      2  C   UNL     1       7.490  47.331 -12.316  0.00  0.00    +0.000 C 
ATOM      3  O   UNL     1       8.065  48.226 -12.980  0.00  0.00    +0.000 OA
ENDBRANCH   4   2
ENDBRANCH   5   4
TORSDOF 3
ENDMDL
MODEL 6
REMARK VINA RESULT:      -7.6     36.730     42.229
REMARK  Name = 
REMARK  3 active torsions:
REMARK  status: ('A' for Active; 'I' for Inactive)
REMARK    1  A    between atoms: C_2  and  O_4
REMARK    2  A    between atoms: O_4  and  C_5
REMARK    3  A    between atoms: C_26  and  C_27
REMARK                            x       y       z     vdW  Elec       q    Type
REMARK                         _______ _______ _______ _____ _____    ______ ____
ROOT
ATOM      5  C   UNL     1       5.717  38.175 -17.112  0.00  0.00    +0.000 C 
ATOM      6  C   UNL     1       5.084  38.815 -15.738  0.00  0.00    +0.000 C 
ATOM      7  C   UNL     1       5.339  40.235 -15.621  0.00  0.00    +0.000 C 
ATOM      8  C   UNL     1       5.416  40.930 -16.773  0.00  0.00    +0.000 C 
ATOM      9  C   UNL     1       4.079  40.616 -17.498  0.00  0.00    +0.000 C 
ATOM     10  C   UNL     1       6.357  40.426 -17.979  0.00  0.00    +0.000 C 
ATOM     11  C   UNL     1       7.643  41.404 -17.744  0.00  0.00    +0.000 C 
ATOM     12  C   UNL     1       7.701  41.879 -16.383  0.00  0.00    +0.000 C 
ATOM     13  C   UNL     1       6.734  42.927 -16.187  0.00  0.00    +0.000 C 
ATOM     14  C   UNL     1       7.018  44.029 -17.216  0.00  0.00    +0.000 C 
ATOM     15  C   UNL     1       5.292  42.530 -16.821  0.00  0.00    +0.000 C 
ATOM     16  C   UNL     1       4.519  42.599 -15.375  0.00  0.00    +0.000 C 
ATOM     17  C   UNL     1       4.572  44.094 -15.149  0.00  0.00    +0.000 C 
ATOM     18  C   UNL     1       5.744  44.668 -14.788  0.00  0.00    +0.000 C 
ATOM     19  C   UNL     1       5.683  45.351 -13.333  0.00  0.00    +0.000 C 
ATOM     20  C   UNL     1       5.117  46.816 -13.962  0.00  0.00    +0.000 C 
ATOM     21  C   UNL     1       3.848  46.739 -12.974  0.00  0.00    +0.000 C 
ATOM     22  C   UNL     1       6.046  47.875 -13.032  0.00  0.00    +0.000 C 
ATOM     23  C   UNL     1       4.838  48.888 -12.645  0.00  0.00    +0.000 C 
ATOM     24  C   UNL     1       5.966  47.040 -11.642  0.00  0.00    +0.000 C 
ATOM     25  C   UNL     1       7.326  46.362 -11.869  0.00  0.00    +0.000 C 
ATOM     26  C   UNL     1       7.249  45.722 -13.225  0.00  0.00    +0.000 C 
ATOM     30  C   UNL     1       7.967  44.384 -13.087  0.00  0.00    +0.000 C 
ATOM     31  C   UNL     1       8.111  43.921 -14.540  0.00  0.00    +0.000 C 
ATOM     32  C   UNL     1       6.706  43.510 -14.888  0.00  0.00    +0.000 C 
ATOM     33  C   UNL     1       6.282  42.644 -13.708  0.00  0.00    +0.000 C 
ATOM     34  C   UNL     1       7.008  39.175 -17.162  0.00  0.00    +0.000 C 
ATOM     35  C   UNL     1       7.701  39.335 -15.991  0.00  0.00    +0.000 C 
ATOM     36  C   UNL     1       7.940  38.626 -18.236  0.00  0.00    +0.000 C 
ENDROOT
BRANCH  26  27
ATOM     27  C   UNL     1       7.755  46.403 -14.353  0.00  0.00    +0.000 C 
ATOM     28  O   UNL     1       9.017  46.338 -14.496  0.00  0.00    +0.000 OA
ATOM     29  O   UNL     1       7.111  46.693 -15.562  0.00  0.00    +0.000 OA
ENDBRANCH  26  27
BRANCH   5   4
ATOM      4  O   UNL     1       6.455  37.104 -16.278  0.00  0.00    +0.000 OA
BRANCH   4   2
ATOM      1  C   UNL     1       7.374  34.985 -17.352  0.00  0.00    +0.000 C 
ATOM      2  C   UNL     1       6.268  35.817 -16.794  0.00  0.00    +0.000 C 
ATOM      3  O   UNL     1       5.116  35.365 -16.589  0.00  0.00    +0.000 OA
ENDBRANCH   4   2
ENDBRANCH   5   4
TORSDOF 3
ENDMDL
MODEL 7
REMARK VINA RESULT:      -7.5     25.697     28.882
REMARK  Name = 
REMARK  3 active torsions:
REMARK  status: ('A' for Active; 'I' for Inactive)
REMARK    1  A    between atoms: C_2  and  O_4
REMARK    2  A    between atoms: O_4  and  C_5
REMARK    3  A    between atoms: C_26  and  C_27
REMARK                            x       y       z     vdW  Elec       q    Type
REMARK                         _______ _______ _______ _____ _____    ______ ____
ROOT
ATOM      5  C   UNL     1      26.100  37.150  19.503  0.00  0.00    +0.000 C 
ATOM      6  C   UNL     1      26.696  37.810  18.123  0.00  0.00    +0.000 C 
ATOM      7  C   UNL     1      26.694  39.258  18.156  0.00  0.00    +0.000 C 
ATOM      8  C   UNL     1      26.864  39.832  19.364  0.00  0.00    +0.000 C 
ATOM      9  C   UNL     1      28.187  39.218  19.895  0.00  0.00    +0.000 C 
ATOM     10  C   UNL     1      25.975  39.376  20.626  0.00  0.00    +0.000 C 
ATOM     11  C   UNL     1      24.872  40.579  20.629  0.00  0.00    +0.000 C 
ATOM     12  C   UNL     1      24.763  41.196  19.330  0.00  0.00    +0.000 C 
ATOM     13  C   UNL     1      25.880  42.077  19.108  0.00  0.00    +0.000 C 
ATOM     14  C   UNL     1      25.909  43.098  20.252  0.00  0.00    +0.000 C 
ATOM     15  C   UNL     1      27.283  41.373  19.531  0.00  0.00    +0.000 C 
ATOM     16  C   UNL     1      27.903  41.457  18.014  0.00  0.00    +0.000 C 
ATOM     17  C   UNL     1      28.102  42.954  17.922  0.00  0.00    +0.000 C 
ATOM     18  C   UNL     1      27.024  43.756  17.753  0.00  0.00    +0.000 C 
ATOM     19  C   UNL     1      27.060  44.566  16.363  0.00  0.00    +0.000 C 
ATOM     20  C   UNL     1      27.945  45.838  17.041  0.00  0.00    +0.000 C 
ATOM     21  C   UNL     1      29.071  45.646  15.906  0.00  0.00    +0.000 C 
ATOM     22  C   UNL     1      27.136  47.132  16.321  0.00  0.00    +0.000 C 
ATOM     23  C   UNL     1      28.462  47.956  15.879  0.00  0.00    +0.000 C 
ATOM     24  C   UNL     1      26.919  46.444  14.866  0.00  0.00    +0.000 C 
ATOM     25  C   UNL     1      25.488  45.992  15.195  0.00  0.00    +0.000 C 
ATOM     26  C   UNL     1      25.585  45.211  16.475  0.00  0.00    +0.000 C 
ATOM     30  C   UNL     1      24.624  44.038  16.311  0.00  0.00    +0.000 C 
ATOM     31  C   UNL     1      24.547  43.458  17.726  0.00  0.00    +0.000 C 
ATOM     32  C   UNL     1      25.881  42.778  17.869  0.00  0.00    +0.000 C 
ATOM     33  C   UNL     1      26.017  41.979  16.579  0.00  0.00    +0.000 C 
ATOM     34  C   UNL     1      25.026  38.347  19.791  0.00  0.00    +0.000 C 
ATOM     35  C   UNL     1      24.258  38.744  18.728  0.00  0.00    +0.000 C 
ATOM     36  C   UNL     1      24.124  37.858  20.918  0.00  0.00    +0.000 C 
ENDROOT
BRANCH  26  27
ATOM     27  C   UNL     1      25.330  45.847  17.707  0.00  0.00    +0.000 C 
ATOM     28  O   UNL     1      24.110  46.136  17.919  0.00  0.00    +0.000 OA
ATOM     29  O   UNL     1      26.057  45.767  18.901  0.00  0.00    +0.000 OA
ENDBRANCH  26  27
BRANCH   5   4
ATOM      4  O   UNL     1      25.097  36.315  18.676  0.00  0.00    +0.000 OA
BRANCH   4   2
ATOM      1  C   UNL     1      25.330  34.323  20.247  0.00  0.00    +0.000 C 
ATOM      2  C   UNL     1      25.257  34.942  18.890  0.00  0.00    +0.000 C 
ATOM      3  O   UNL     1      25.164  34.264  17.839  0.00  0.00    +0.000 OA
ENDBRANCH   4   2
ENDBRANCH   5   4
TORSDOF 3
ENDMDL
MODEL 8
REMARK VINA RESULT:      -7.4     20.038     24.352
REMARK  Name = 
REMARK  3 active torsions:
REMARK  status: ('A' for Active; 'I' for Inactive)
REMARK    1  A    between atoms: C_2  and  O_4
REMARK    2  A    between atoms: O_4  and  C_5
REMARK    3  A    between atoms: C_26  and  C_27
REMARK                            x       y       z     vdW  Elec       q    Type
REMARK                         _______ _______ _______ _____ _____    ______ ____
ROOT
ATOM      5  C   UNL     1      23.398  56.754  -3.102  0.00  0.00    +0.000 C 
ATOM      6  C   UNL     1      24.754  57.646  -2.847  0.00  0.00    +0.000 C 
ATOM      7  C   UNL     1      25.577  57.751  -4.033  0.00  0.00    +0.000 C 
ATOM      8  C   UNL     1      24.933  57.738  -5.217  0.00  0.00    +0.000 C 
ATOM      9  C   UNL     1      23.895  58.888  -5.099  0.00  0.00    +0.000 C 
ATOM     10  C   UNL     1      23.847  56.597  -5.552  0.00  0.00    +0.000 C 
ATOM     11  C   UNL     1      24.768  55.611  -6.471  0.00  0.00    +0.000 C 
ATOM     12  C   UNL     1      26.172  55.794  -6.196  0.00  0.00    +0.000 C 
ATOM     13  C   UNL     1      26.644  56.998  -6.828  0.00  0.00    +0.000 C 
ATOM     14  C   UNL     1      26.339  56.894  -8.328  0.00  0.00    +0.000 C 
ATOM     15  C   UNL     1      25.623  58.238  -6.577  0.00  0.00    +0.000 C 
ATOM     16  C   UNL     1      26.743  59.134  -5.779  0.00  0.00    +0.000 C 
ATOM     17  C   UNL     1      27.655  59.463  -6.941  0.00  0.00    +0.000 C 
ATOM     18  C   UNL     1      28.470  58.502  -7.436  0.00  0.00    +0.000 C 
ATOM     19  C   UNL     1      30.030  58.859  -7.269  0.00  0.00    +0.000 C 
ATOM     20  C   UNL     1      30.071  59.699  -8.737  0.00  0.00    +0.000 C 
ATOM     21  C   UNL     1      30.629  60.999  -7.966  0.00  0.00    +0.000 C 
ATOM     22  C   UNL     1      31.555  59.142  -9.316  0.00  0.00    +0.000 C 
ATOM     23  C   UNL     1      32.125  60.588  -9.783  0.00  0.00    +0.000 C 
ATOM     24  C   UNL     1      32.336  59.146  -7.893  0.00  0.00    +0.000 C 
ATOM     25  C   UNL     1      32.092  57.648  -7.655  0.00  0.00    +0.000 C 
ATOM     26  C   UNL     1      30.610  57.444  -7.785  0.00  0.00    +0.000 C 
ATOM     30  C   UNL     1      30.239  56.442  -6.697  0.00  0.00    +0.000 C 
ATOM     31  C   UNL     1      28.802  56.058  -7.062  0.00  0.00    +0.000 C 
ATOM     32  C   UNL     1      28.029  57.284  -6.661  0.00  0.00    +0.000 C 
ATOM     33  C   UNL     1      28.546  57.595  -5.263  0.00  0.00    +0.000 C 
ATOM     34  C   UNL     1      24.085  55.742  -4.185  0.00  0.00    +0.000 C 
ATOM     35  C   UNL     1      25.304  55.218  -3.841  0.00  0.00    +0.000 C 
ATOM     36  C   UNL     1      23.090  54.611  -4.414  0.00  0.00    +0.000 C 
ENDROOT
BRANCH  26  27
ATOM     27  C   UNL     1      30.065  57.015  -9.013  0.00  0.00    +0.000 C 
ATOM     28  O   UNL     1      30.267  55.791  -9.290  0.00  0.00    +0.000 OA
ATOM     29  O   UNL     1      28.965  57.529  -9.711  0.00  0.00    +0.000 OA
ENDBRANCH  26  27
BRANCH   5   4
ATOM      4  O   UNL     1      23.754  55.860  -1.893  0.00  0.00    +0.000 OA
BRANCH   4   2
ATOM      1  C   UNL     1      23.797  56.322   0.611  0.00  0.00    +0.000 C 
ATOM      2  C   UNL     1      23.123  56.289  -0.720  0.00  0.00    +0.000 C 
ATOM      3  O   UNL     1      21.997  56.802  -0.924  0.00  0.00    +0.000 OA
ENDBRANCH   4   2
ENDBRANCH   5   4
TORSDOF 3
ENDMDL
MODEL 9
REMARK VINA RESULT:      -7.4     26.976     29.697
REMARK  Name = 
REMARK  3 active torsions:
REMARK  status: ('A' for Active; 'I' for Inactive)
REMARK    1  A    between atoms: C_2  and  O_4
REMARK    2  A    between atoms: O_4  and  C_5
REMARK    3  A    between atoms: C_26  and  C_27
REMARK                            x       y       z     vdW  Elec       q    Type
REMARK                         _______ _______ _______ _____ _____    ______ ____
ROOT
ATOM      5  C   UNL     1      25.839  44.971  17.741  0.00  0.00    +0.000 C 
ATOM      6  C   UNL     1      24.481  44.120  18.100  0.00  0.00    +0.000 C 
ATOM      7  C   UNL     1      24.773  42.860  18.750  0.00  0.00    +0.000 C 
ATOM      8  C   UNL     1      25.875  42.824  19.526  0.00  0.00    +0.000 C 
ATOM      9  C   UNL     1      25.671  43.988  20.532  0.00  0.00    +0.000 C 
ATOM     10  C   UNL     1      27.291  43.357  18.973  0.00  0.00    +0.000 C 
ATOM     11  C   UNL     1      27.981  41.931  18.581  0.00  0.00    +0.000 C 
ATOM     12  C   UNL     1      26.988  40.910  18.355  0.00  0.00    +0.000 C 
ATOM     13  C   UNL     1      26.474  40.436  19.613  0.00  0.00    +0.000 C 
ATOM     14  C   UNL     1      27.661  39.939  20.449  0.00  0.00    +0.000 C 
ATOM     15  C   UNL     1      26.124  41.669  20.612  0.00  0.00    +0.000 C 
ATOM     16  C   UNL     1      24.530  41.286  20.694  0.00  0.00    +0.000 C 
ATOM     17  C   UNL     1      24.634  40.007  21.496  0.00  0.00    +0.000 C 
ATOM     18  C   UNL     1      25.089  38.883  20.892  0.00  0.00    +0.000 C 
ATOM     19  C   UNL     1      23.988  37.710  20.845  0.00  0.00    +0.000 C 
ATOM     20  C   UNL     1      24.442  37.121  22.364  0.00  0.00    +0.000 C 
ATOM     21  C   UNL     1      22.921  37.281  22.869  0.00  0.00    +0.000 C 
ATOM     22  C   UNL     1      24.383  35.468  22.031  0.00  0.00    +0.000 C 
ATOM     23  C   UNL     1      23.575  35.039  23.372  0.00  0.00    +0.000 C 
ATOM     24  C   UNL     1      23.062  35.503  21.088  0.00  0.00    +0.000 C 
ATOM     25  C   UNL     1      23.882  35.533  19.790  0.00  0.00    +0.000 C 
ATOM     26  C   UNL     1      24.833  36.687  19.926  0.00  0.00    +0.000 C 
ATOM     30  C   UNL     1      24.885  37.338  18.549  0.00  0.00    +0.000 C 
ATOM     31  C   UNL     1      26.068  38.304  18.672  0.00  0.00    +0.000 C 
ATOM     32  C   UNL     1      25.502  39.398  19.535  0.00  0.00    +0.000 C 
ATOM     33  C   UNL     1      24.156  39.706  18.891  0.00  0.00    +0.000 C 
ATOM     34  C   UNL     1      26.769  43.657  17.459  0.00  0.00    +0.000 C 
ATOM     35  C   UNL     1      26.226  42.688  16.655  0.00  0.00    +0.000 C 
ATOM     36  C   UNL     1      28.064  44.168  16.838  0.00  0.00    +0.000 C 
ENDROOT
BRANCH  26  27
ATOM     27  C   UNL     1      26.150  36.462  20.381  0.00  0.00    +0.000 C 
ATOM     28  O   UNL     1      26.906  35.863  19.554  0.00  0.00    +0.000 OA
ATOM     29  O   UNL     1      26.886  37.189  21.324  0.00  0.00    +0.000 OA
ENDBRANCH  26  27
BRANCH   5   4
ATOM      4  O   UNL     1      25.383  45.086  16.268  0.00  0.00    +0.000 OA
BRANCH   4   2
ATOM      1  C   UNL     1      25.880  46.754  14.409  0.00  0.00    +0.000 C 
ATOM      2  C   UNL     1      25.461  46.401  15.797  0.00  0.00    +0.000 C 
ATOM      3  O   UNL     1      24.983  47.241  16.597  0.00  0.00    +0.000 OA
ENDBRANCH   4   2
ENDBRANCH   5   4
TORSDOF 3
ENDMDL
MODEL 10
REMARK VINA RESULT:      -7.3      1.987      8.136
REMARK  Name = 
REMARK  3 active torsions:
REMARK  status: ('A' for Active; 'I' for Inactive)
REMARK    1  A    between atoms: C_2  and  O_4
REMARK    2  A    between atoms: O_4  and  C_5
REMARK    3  A    between atoms: C_26  and  C_27
REMARK                            x       y       z     vdW  Elec       q    Type
REMARK                         _______ _______ _______ _____ _____    ______ ____
ROOT
ATOM      5  C   UNL     1      17.077  66.668  10.150  0.00  0.00    +0.000 C 
ATOM      6  C   UNL     1      17.781  65.784  11.342  0.00  0.00    +0.000 C 
ATOM      7  C   UNL     1      18.531  66.605  12.269  0.00  0.00    +0.000 C 
ATOM      8  C   UNL     1      18.074  67.856  12.472  0.00  0.00    +0.000 C 
ATOM      9  C   UNL     1      16.596  67.658  12.903  0.00  0.00    +0.000 C 
ATOM     10  C   UNL     1      17.734  68.821  11.228  0.00  0.00    +0.000 C 
ATOM     11  C   UNL     1      19.093  69.726  11.210  0.00  0.00    +0.000 C 
ATOM     12  C   UNL     1      20.191  69.040  11.844  0.00  0.00    +0.000 C 
ATOM     13  C   UNL     1      20.046  69.096  13.275  0.00  0.00    +0.000 C 
ATOM     14  C   UNL     1      19.952  70.573  13.680  0.00  0.00    +0.000 C 
ATOM     15  C   UNL     1      18.527  68.743  13.731  0.00  0.00    +0.000 C 
ATOM     16  C   UNL     1      18.982  67.428  14.601  0.00  0.00    +0.000 C 
ATOM     17  C   UNL     1      19.695  68.130  15.736  0.00  0.00    +0.000 C 
ATOM     18  C   UNL     1      20.918  68.670  15.517  0.00  0.00    +0.000 C 
ATOM     19  C   UNL     1      22.072  67.984  16.403  0.00  0.00    +0.000 C 
ATOM     20  C   UNL     1      21.801  69.033  17.702  0.00  0.00    +0.000 C 
ATOM     21  C   UNL     1      21.573  67.764  18.667  0.00  0.00    +0.000 C 
ATOM     22  C   UNL     1      23.406  69.339  18.129  0.00  0.00    +0.000 C 
ATOM     23  C   UNL     1      23.212  69.142  19.728  0.00  0.00    +0.000 C 
ATOM     24  C   UNL     1      23.967  67.836  17.879  0.00  0.00    +0.000 C 
ATOM     25  C   UNL     1      24.486  68.169  16.472  0.00  0.00    +0.000 C 
ATOM     26  C   UNL     1      23.319  68.753  15.727  0.00  0.00    +0.000 C 
ATOM     30  C   UNL     1      23.415  68.190  14.313  0.00  0.00    +0.000 C 
ATOM     31  C   UNL     1      22.395  69.031  13.540  0.00  0.00    +0.000 C 
ATOM     32  C   UNL     1      21.084  68.480  14.029  0.00  0.00    +0.000 C 
ATOM     33  C   UNL     1      21.267  66.971  13.922  0.00  0.00    +0.000 C 
ATOM     34  C   UNL     1      18.260  67.793  10.079  0.00  0.00    +0.000 C 
ATOM     35  C   UNL     1      19.546  67.322  10.037  0.00  0.00    +0.000 C 
ATOM     36  C   UNL     1      17.984  68.634   8.838  0.00  0.00    +0.000 C 
ENDROOT
BRANCH  26  27
ATOM     27  C   UNL     1      23.160  70.152  15.657  0.00  0.00    +0.000 C 
ATOM     28  O   UNL     1      24.006  70.751  14.921  0.00  0.00    +0.000 OA
ATOM     29  O   UNL     1      21.995  70.911  15.829  0.00  0.00    +0.000 OA
ENDBRANCH  26  27
BRANCH   5   4
ATOM      4  O   UNL     1      17.736  65.765   9.084  0.00  0.00    +0.000 OA
BRANCH   4   2
ATOM      1  C   UNL     1      15.493  65.964   7.894  0.00  0.00    +0.000 C 
ATOM      2  C   UNL     1      16.811  65.308   8.140  0.00  0.00    +0.000 C 
ATOM      3  O   UNL     1      17.264  64.398   7.404  0.00  0.00    +0.000 OA
ENDBRANCH   4   2
ENDBRANCH   5   4
TORSDOF 3
ENDMDL
