MODEL 1
REMARK VINA RESULT:      -8.3      0.000      0.000
REMARK  Name = 
REMARK  3 active torsions:
REMARK  status: ('A' for Active; 'I' for Inactive)
REMARK    1  A    between atoms: C_5  and  C_6
REMARK    2  A    between atoms: C_21  and  O_22
REMARK    3  A    between atoms: O_22  and  S_23
REMARK                            x       y       z     vdW  Elec       q    Type
REMARK                         _______ _______ _______ _____ _____    ______ ____
ROOT
ATOM      1  C   UNL     1      28.355  37.395  22.358  0.00  0.00    +0.000 C 
ATOM      2  C   UNL     1      26.847  37.789  22.819  0.00  0.00    +0.000 C 
ATOM      3  C   UNL     1      26.194  36.560  21.996  0.00  0.00    +0.000 C 
ATOM      4  C   UNL     1      26.069  36.884  20.559  0.00  0.00    +0.000 C 
ATOM      5  C   UNL     1      24.883  37.795  20.447  0.00  0.00    +0.000 C 
ATOM      9  C   UNL     1      24.561  38.313  19.136  0.00  0.00    +0.000 C 
ATOM     10  C   UNL     1      25.685  39.097  18.539  0.00  0.00    +0.000 C 
ATOM     11  C   UNL     1      25.714  40.313  19.424  0.00  0.00    +0.000 C 
ATOM     12  C   UNL     1      27.143  40.730  19.530  0.00  0.00    +0.000 C 
ATOM     13  C   UNL     1      24.962  40.210  20.650  0.00  0.00    +0.000 C 
ATOM     14  C   UNL     1      24.528  41.301  21.292  0.00  0.00    +0.000 C 
ATOM     15  C   UNL     1      24.242  42.594  20.584  0.00  0.00    +0.000 C 
ATOM     16  C   UNL     1      25.517  42.635  19.558  0.00  0.00    +0.000 C 
ATOM     17  C   UNL     1      24.919  43.860  18.650  0.00  0.00    +0.000 C 
ATOM     18  C   UNL     1      23.571  43.636  18.304  0.00  0.00    +0.000 C 
ATOM     19  C   UNL     1      25.370  45.060  19.371  0.00  0.00    +0.000 C 
ATOM     20  C   UNL     1      25.423  46.345  18.652  0.00  0.00    +0.000 C 
ATOM     21  C   UNL     1      26.511  46.206  17.415  0.00  0.00    +0.000 C 
ATOM     27  C   UNL     1      25.653  45.036  16.630  0.00  0.00    +0.000 C 
ATOM     28  C   UNL     1      24.243  45.373  16.874  0.00  0.00    +0.000 C 
ATOM     29  C   UNL     1      24.524  45.413  16.626  0.00  0.00    +0.000 C 
ATOM     30  C   UNL     1      26.040  43.709  17.481  0.00  0.00    +0.000 C 
ATOM     31  C   UNL     1      25.096  42.723  16.571  0.00  0.00    +0.000 C 
ATOM     32  C   UNL     1      25.542  41.453  17.298  0.00  0.00    +0.000 C 
ATOM     33  C   UNL     1      24.966  41.409  18.643  0.00  0.00    +0.000 C 
ATOM     34  C   UNL     1      23.550  41.121  18.793  0.00  0.00    +0.000 C 
ATOM     35  C   UNL     1      25.015  38.927  21.602  0.00  0.00    +0.000 C 
ATOM     36  C   UNL     1      26.707  38.938  21.596  0.00  0.00    +0.000 C 
ATOM     37  C   UNL     1      26.759  40.133  22.669  0.00  0.00    +0.000 C 
ENDROOT
BRANCH   5   6
ATOM      6  C   UNL     1      23.683  36.993  20.865  0.00  0.00    +0.000 C 
ATOM      7  O   UNL     1      23.375  35.901  20.293  0.00  0.00    +0.000 OA
ATOM      8  O   UNL     1      22.816  37.390  21.858  0.00  0.00    +0.000 OA
ENDBRANCH   5   6
BRANCH  21  22
ATOM     22  O   UNL     1      25.840  47.303  16.596  0.00  0.00    +0.000 OA
BRANCH  22  23
ATOM     23  S   UNL     1      26.969  48.169  15.798  0.00  0.00    +0.000 S 
ATOM     24  O   UNL     1      27.401  49.437  16.439  0.00  0.00    +0.000 OA
ATOM     25  O   UNL     1      26.704  48.360  14.327  0.00  0.00    +0.000 OA
ATOM     26  O   UNL     1      28.331  47.156  15.813  0.00  0.00    +0.000 OA
ENDBRANCH  22  23
ENDBRANCH  21  22
TORSDOF 3
ENDMDL
MODEL 2
REMARK VINA RESULT:      -7.9     37.132     39.801
REMARK  Name = 
REMARK  3 active torsions:
REMARK  status: ('A' for Active; 'I' for Inactive)
REMARK    1  A    between atoms: C_5  and  C_6
REMARK    2  A    between atoms: C_21  and  O_22
REMARK    3  A    between atoms: O_22  and  S_23
REMARK                            x       y       z     vdW  Elec       q    Type
REMARK                         _______ _______ _______ _____ _____    ______ ____
ROOT
ATOM      1  C   UNL     1       3.755  38.220 -19.318  0.00  0.00    +0.000 C 
ATOM      2  C   UNL     1       5.340  38.403 -19.632  0.00  0.00    +0.000 C 
ATOM      3  C   UNL     1       5.737  37.097 -18.765  0.00  0.00    +0.000 C 
ATOM      4  C   UNL     1       5.769  37.401 -17.320  0.00  0.00    +0.000 C 
ATOM      5  C   UNL     1       7.053  38.141 -17.086  0.00  0.00    +0.000 C 
ATOM      9  C   UNL     1       7.318  38.611 -15.745  0.00  0.00    +0.000 C 
ATOM     10  C   UNL     1       6.261  39.542 -15.246  0.00  0.00    +0.000 C 
ATOM     11  C   UNL     1       6.482  40.750 -16.115  0.00  0.00    +0.000 C 
ATOM     12  C   UNL     1       5.140  41.360 -16.350  0.00  0.00    +0.000 C 
ATOM     13  C   UNL     1       7.325  40.544 -17.267  0.00  0.00    +0.000 C 
ATOM     14  C   UNL     1       7.963  41.564 -17.851  0.00  0.00    +0.000 C 
ATOM     15  C   UNL     1       8.355  42.806 -17.104  0.00  0.00    +0.000 C 
ATOM     16  C   UNL     1       7.007  43.023 -16.202  0.00  0.00    +0.000 C 
ATOM     17  C   UNL     1       7.679  44.155 -15.227  0.00  0.00    +0.000 C 
ATOM     18  C   UNL     1       8.945  43.748 -14.759  0.00  0.00    +0.000 C 
ATOM     19  C   UNL     1       7.466  45.405 -15.972  0.00  0.00    +0.000 C 
ATOM     20  C   UNL     1       7.522  46.686 -15.246  0.00  0.00    +0.000 C 
ATOM     21  C   UNL     1       6.314  46.699 -14.118  0.00  0.00    +0.000 C 
ATOM     27  C   UNL     1       6.926  45.422 -13.271  0.00  0.00    +0.000 C 
ATOM     28  C   UNL     1       8.384  45.562 -13.377  0.00  0.00    +0.000 C 
ATOM     29  C   UNL     1       8.090  45.641 -13.156  0.00  0.00    +0.000 C 
ATOM     30  C   UNL     1       6.442  44.160 -14.170  0.00  0.00    +0.000 C 
ATOM     31  C   UNL     1       7.152  43.055 -13.188  0.00  0.00    +0.000 C 
ATOM     32  C   UNL     1       6.607  41.858 -13.969  0.00  0.00    +0.000 C 
ATOM     33  C   UNL     1       7.296  41.734 -15.255  0.00  0.00    +0.000 C 
ATOM     34  C   UNL     1       8.667  41.254 -15.274  0.00  0.00    +0.000 C 
ATOM     35  C   UNL     1       7.187  39.279 -18.235  0.00  0.00    +0.000 C 
ATOM     36  C   UNL     1       5.519  39.523 -18.387  0.00  0.00    +0.000 C 
ATOM     37  C   UNL     1       5.733  40.712 -19.446  0.00  0.00    +0.000 C 
ENDROOT
BRANCH   5   6
ATOM      6  C   UNL     1       8.166  37.181 -17.400  0.00  0.00    +0.000 C 
ATOM      7  O   UNL     1       8.254  36.050 -16.830  0.00  0.00    +0.000 OA
ATOM      8  O   UNL     1       9.181  37.463 -18.286  0.00  0.00    +0.000 OA
ENDBRANCH   5   6
BRANCH  21  22
ATOM     22  O   UNL     1       7.048  47.694 -13.227  0.00  0.00    +0.000 OA
BRANCH  22  23
ATOM     23  S   UNL     1       5.971  48.609 -12.412  0.00  0.00    +0.000 S 
ATOM     24  O   UNL     1       6.393  49.084 -11.070  0.00  0.00    +0.000 OA
ATOM     25  O   UNL     1       4.565  48.066 -12.386  0.00  0.00    +0.000 OA
ATOM     26  O   UNL     1       5.826  50.002 -13.371  0.00  0.00    +0.000 OA
ENDBRANCH  22  23
ENDBRANCH  21  22
TORSDOF 3
ENDMDL
MODEL 3
REMARK VINA RESULT:      -7.8     26.351     28.324
REMARK  Name = 
REMARK  3 active torsions:
REMARK  status: ('A' for Active; 'I' for Inactive)
REMARK    1  A    between atoms: C_5  and  C_6
REMARK    2  A    between atoms: C_21  and  O_22
REMARK    3  A    between atoms: O_22  and  S_23
REMARK                            x       y       z     vdW  Elec       q    Type
REMARK                         _______ _______ _______ _____ _____    ______ ____
ROOT
ATOM      1  C   UNL     1      19.265  66.093   6.987  0.00  0.00    +0.000 C 
ATOM      2  C   UNL     1      18.410  65.385   8.175  0.00  0.00    +0.000 C 
ATOM      3  C   UNL     1      17.102  66.285   7.870  0.00  0.00    +0.000 C 
ATOM      4  C   UNL     1      17.225  67.631   8.468  0.00  0.00    +0.000 C 
ATOM      5  C   UNL     1      16.955  67.454   9.933  0.00  0.00    +0.000 C 
ATOM      9  C   UNL     1      17.063  68.623  10.777  0.00  0.00    +0.000 C 
ATOM     10  C   UNL     1      18.422  69.243  10.725  0.00  0.00    +0.000 C 
ATOM     11  C   UNL     1      19.259  68.203  11.418  0.00  0.00    +0.000 C 
ATOM     12  C   UNL     1      20.599  68.226  10.762  0.00  0.00    +0.000 C 
ATOM     13  C   UNL     1      18.633  66.917  11.599  0.00  0.00    +0.000 C 
ATOM     14  C   UNL     1      19.043  66.074  12.554  0.00  0.00    +0.000 C 
ATOM     15  C   UNL     1      19.696  66.545  13.821  0.00  0.00    +0.000 C 
ATOM     16  C   UNL     1      20.669  67.711  13.212  0.00  0.00    +0.000 C 
ATOM     17  C   UNL     1      21.046  68.348  14.674  0.00  0.00    +0.000 C 
ATOM     18  C   UNL     1      19.895  68.542  15.465  0.00  0.00    +0.000 C 
ATOM     19  C   UNL     1      22.186  67.527  15.111  0.00  0.00    +0.000 C 
ATOM     20  C   UNL     1      23.086  68.053  16.152  0.00  0.00    +0.000 C 
ATOM     21  C   UNL     1      23.800  69.429  15.576  0.00  0.00    +0.000 C 
ATOM     27  C   UNL     1      22.378  70.255  15.441  0.00  0.00    +0.000 C 
ATOM     28  C   UNL     1      21.558  69.783  16.565  0.00  0.00    +0.000 C 
ATOM     29  C   UNL     1      21.793  70.057  16.459  0.00  0.00    +0.000 C 
ATOM     30  C   UNL     1      21.776  69.663  14.055  0.00  0.00    +0.000 C 
ATOM     31  C   UNL     1      20.415  70.574  14.135  0.00  0.00    +0.000 C 
ATOM     32  C   UNL     1      19.895  70.102  12.776  0.00  0.00    +0.000 C 
ATOM     33  C   UNL     1      19.438  68.713  12.860  0.00  0.00    +0.000 C 
ATOM     34  C   UNL     1      18.195  68.423  13.552  0.00  0.00    +0.000 C 
ATOM     35  C   UNL     1      17.813  66.176  10.445  0.00  0.00    +0.000 C 
ATOM     36  C   UNL     1      19.076  66.401   9.341  0.00  0.00    +0.000 C 
ATOM     37  C   UNL     1      19.916  65.184   9.969  0.00  0.00    +0.000 C 
ENDROOT
BRANCH   5   6
ATOM      6  C   UNL     1      15.527  67.003  10.056  0.00  0.00    +0.000 C 
ATOM      7  O   UNL     1      15.215  65.928  10.657  0.00  0.00    +0.000 OA
ATOM      8  O   UNL     1      14.467  67.686   9.505  0.00  0.00    +0.000 OA
ENDBRANCH   5   6
BRANCH  21  22
ATOM     22  O   UNL     1      24.037  69.986  16.975  0.00  0.00    +0.000 OA
BRANCH  22  23
ATOM     23  S   UNL     1      25.176  71.153  16.922  0.00  0.00    +0.000 S 
ATOM     24  O   UNL     1      26.353  70.963  17.807  0.00  0.00    +0.000 OA
ATOM     25  O   UNL     1      24.649  72.562  17.004  0.00  0.00    +0.000 OA
ATOM     26  O   UNL     1      25.769  71.057  15.335  0.00  0.00    +0.000 OA
ENDBRANCH  22  23
ENDBRANCH  21  22
TORSDOF 3
ENDMDL
MODEL 4
REMARK VINA RESULT:      -7.6     24.238     27.539
REMARK  Name = 
REMARK  3 active torsions:
REMARK  status: ('A' for Active; 'I' for Inactive)
REMARK    1  A    between atoms: C_5  and  C_6
REMARK    2  A    between atoms: C_21  and  O_22
REMARK    3  A    between atoms: O_22  and  S_23
REMARK                            x       y       z     vdW  Elec       q    Type
REMARK                         _______ _______ _______ _____ _____    ______ ____
ROOT
ATOM      1  C   UNL     1      13.254  58.319   8.095  0.00  0.00    +0.000 C 
ATOM      2  C   UNL     1      12.573  57.408   6.933  0.00  0.00    +0.000 C 
ATOM      3  C   UNL     1      12.553  58.635   5.881  0.00  0.00    +0.000 C 
ATOM      4  C   UNL     1      11.414  59.542   6.135  0.00  0.00    +0.000 C 
ATOM      5  C   UNL     1      10.206  58.844   5.585  0.00  0.00    +0.000 C 
ATOM      9  C   UNL     1       8.926  59.497   5.750  0.00  0.00    +0.000 C 
ATOM     10  C   UNL     1       8.589  59.741   7.185  0.00  0.00    +0.000 C 
ATOM     11  C   UNL     1       8.362  58.341   7.689  0.00  0.00    +0.000 C 
ATOM     12  C   UNL     1       8.830  58.315   9.106  0.00  0.00    +0.000 C 
ATOM     13  C   UNL     1       8.820  57.285   6.821  0.00  0.00    +0.000 C 
ATOM     14  C   UNL     1       8.307  56.051   6.899  0.00  0.00    +0.000 C 
ATOM     15  C   UNL     1       6.914  55.785   7.394  0.00  0.00    +0.000 C 
ATOM     16  C   UNL     1       6.863  56.832   8.651  0.00  0.00    +0.000 C 
ATOM     17  C   UNL     1       5.246  56.697   8.873  0.00  0.00    +0.000 C 
ATOM     18  C   UNL     1       4.547  56.814   7.655  0.00  0.00    +0.000 C 
ATOM     19  C   UNL     1       5.127  55.524   9.753  0.00  0.00    +0.000 C 
ATOM     20  C   UNL     1       3.892  55.343  10.536  0.00  0.00    +0.000 C 
ATOM     21  C   UNL     1       3.740  56.621  11.573  0.00  0.00    +0.000 C 
ATOM     27  C   UNL     1       3.610  57.740  10.368  0.00  0.00    +0.000 C 
ATOM     28  C   UNL     1       2.881  57.055   9.293  0.00  0.00    +0.000 C 
ATOM     29  C   UNL     1       2.836  57.284   9.588  0.00  0.00    +0.000 C 
ATOM     30  C   UNL     1       5.159  57.936   9.923  0.00  0.00    +0.000 C 
ATOM     31  C   UNL     1       4.794  59.027   8.754  0.00  0.00    +0.000 C 
ATOM     32  C   UNL     1       6.258  59.297   8.404  0.00  0.00    +0.000 C 
ATOM     33  C   UNL     1       6.834  58.150   7.700  0.00  0.00    +0.000 C 
ATOM     34  C   UNL     1       6.444  57.904   6.323  0.00  0.00    +0.000 C 
ATOM     35  C   UNL     1      10.245  57.305   6.097  0.00  0.00    +0.000 C 
ATOM     36  C   UNL     1      11.029  57.660   7.554  0.00  0.00    +0.000 C 
ATOM     37  C   UNL     1      10.940  56.131   8.040  0.00  0.00    +0.000 C 
ENDROOT
BRANCH   5   6
ATOM      6  C   UNL     1      10.410  58.735   4.101  0.00  0.00    +0.000 C 
ATOM      7  O   UNL     1      10.353  57.618   3.498  0.00  0.00    +0.000 OA
ATOM      8  O   UNL     1      10.707  59.811   3.296  0.00  0.00    +0.000 OA
ENDBRANCH   5   6
BRANCH  21  22
ATOM     22  O   UNL     1       2.225  56.476  11.657  0.00  0.00    +0.000 OA
BRANCH  22  23
ATOM     23  S   UNL     1       1.721  56.788  13.176  0.00  0.00    +0.000 S 
ATOM     24  O   UNL     1       1.131  55.647  13.921  0.00  0.00    +0.000 OA
ATOM     25  O   UNL     1       0.885  58.033  13.327  0.00  0.00    +0.000 OA
ATOM     26  O   UNL     1       3.152  57.186  13.996  0.00  0.00    +0.000 OA
ENDBRANCH  22  23
ENDBRANCH  21  22
TORSDOF 3
ENDMDL
MODEL 5
REMARK VINA RESULT:      -7.5     24.662     28.605
REMARK  Name = 
REMARK  3 active torsions:
REMARK  status: ('A' for Active; 'I' for Inactive)
REMARK    1  A    between atoms: C_5  and  C_6
REMARK    2  A    between atoms: C_21  and  O_22
REMARK    3  A    between atoms: O_22  and  S_23
REMARK                            x       y       z     vdW  Elec       q    Type
REMARK                         _______ _______ _______ _____ _____    ______ ____
ROOT
ATOM      1  C   UNL     1      13.267  59.356   7.676  0.00  0.00    +0.000 C 
ATOM      2  C   UNL     1      12.626  57.947   7.180  0.00  0.00    +0.000 C 
ATOM      3  C   UNL     1      12.894  58.288   5.623  0.00  0.00    +0.000 C 
ATOM      4  C   UNL     1      11.858  59.195   5.086  0.00  0.00    +0.000 C 
ATOM      5  C   UNL     1      10.648  58.340   4.852  0.00  0.00    +0.000 C 
ATOM      9  C   UNL     1       9.452  58.994   4.370  0.00  0.00    +0.000 C 
ATOM     10  C   UNL     1       8.973  60.066   5.296  0.00  0.00    +0.000 C 
ATOM     11  C   UNL     1       8.508  59.263   6.479  0.00  0.00    +0.000 C 
ATOM     12  C   UNL     1       8.789  60.086   7.692  0.00  0.00    +0.000 C 
ATOM     13  C   UNL     1       8.930  57.885   6.503  0.00  0.00    +0.000 C 
ATOM     14  C   UNL     1       8.258  56.964   7.203  0.00  0.00    +0.000 C 
ATOM     15  C   UNL     1       6.792  57.089   7.504  0.00  0.00    +0.000 C 
ATOM     16  C   UNL     1       6.720  58.684   7.865  0.00  0.00    +0.000 C 
ATOM     17  C   UNL     1       5.084  58.755   7.834  0.00  0.00    +0.000 C 
ATOM     18  C   UNL     1       4.562  58.131   6.683  0.00  0.00    +0.000 C 
ATOM     19  C   UNL     1       4.707  58.357   9.199  0.00  0.00    +0.000 C 
ATOM     20  C   UNL     1       3.372  58.720   9.704  0.00  0.00    +0.000 C 
ATOM     21  C   UNL     1       3.257  60.369   9.738  0.00  0.00    +0.000 C 
ATOM     27  C   UNL     1       3.423  60.534   8.105  0.00  0.00    +0.000 C 
ATOM     28  C   UNL     1       2.750  59.359   7.535  0.00  0.00    +0.000 C 
ATOM     29  C   UNL     1       2.699  59.721   7.624  0.00  0.00    +0.000 C 
ATOM     30  C   UNL     1       5.027  60.379   7.912  0.00  0.00    +0.000 C 
ATOM     31  C   UNL     1       4.953  60.550   6.283  0.00  0.00    +0.000 C 
ATOM     32  C   UNL     1       6.472  60.514   6.106  0.00  0.00    +0.000 C 
ATOM     33  C   UNL     1       6.978  59.159   6.332  0.00  0.00    +0.000 C 
ATOM     34  C   UNL     1       6.734  58.141   5.325  0.00  0.00    +0.000 C 
ATOM     35  C   UNL     1      10.425  57.424   6.173  0.00  0.00    +0.000 C 
ATOM     36  C   UNL     1      11.061  58.566   7.247  0.00  0.00    +0.000 C 
ATOM     37  C   UNL     1      10.717  57.645   8.518  0.00  0.00    +0.000 C 
ENDROOT
BRANCH   5   6
ATOM      6  C   UNL     1      11.019  57.350   3.785  0.00  0.00    +0.000 C 
ATOM      7  O   UNL     1      11.120  57.688   2.565  0.00  0.00    +0.000 OA
ATOM      8  O   UNL     1      11.238  56.014   4.035  0.00  0.00    +0.000 OA
ENDBRANCH   5   6
BRANCH  21  22
ATOM     22  O   UNL     1       1.738  60.345   9.622  0.00  0.00    +0.000 OA
BRANCH  22  23
ATOM     23  S   UNL     1       1.076  61.237  10.817  0.00  0.00    +0.000 S 
ATOM     24  O   UNL     1       0.898  62.684  10.537  0.00  0.00    +0.000 OA
ATOM     25  O   UNL     1       1.670  61.010  12.184  0.00  0.00    +0.000 OA
ATOM     26  O   UNL     1      -0.489  60.599  10.970  0.00  0.00    +0.000 OA
ENDBRANCH  22  23
ENDBRANCH  21  22
TORSDOF 3
ENDMDL
MODEL 6
REMARK VINA RESULT:      -7.5     26.283     30.438
REMARK  Name = 
REMARK  3 active torsions:
REMARK  status: ('A' for Active; 'I' for Inactive)
REMARK    1  A    between atoms: C_5  and  C_6
REMARK    2  A    between atoms: C_21  and  O_22
REMARK    3  A    between atoms: O_22  and  S_23
REMARK                            x       y       z     vdW  Elec       q    Type
REMARK                         _______ _______ _______ _____ _____    ______ ____
ROOT
ATOM      1  C   UNL     1       0.231  62.019  11.997  0.00  0.00    +0.000 C 
ATOM      2  C   UNL     1       0.445  62.832  10.605  0.00  0.00    +0.000 C 
ATOM      3  C   UNL     1      -0.822  62.112   9.904  0.00  0.00    +0.000 C 
ATOM      4  C   UNL     1      -0.471  60.761   9.419  0.00  0.00    +0.000 C 
ATOM      5  C   UNL     1       0.309  60.970   8.155  0.00  0.00    +0.000 C 
ATOM      9  C   UNL     1       0.829  59.797   7.489  0.00  0.00    +0.000 C 
ATOM     10  C   UNL     1       1.747  59.004   8.361  0.00  0.00    +0.000 C 
ATOM     11  C   UNL     1       2.932  59.924   8.474  0.00  0.00    +0.000 C 
ATOM     12  C   UNL     1       3.499  59.726   9.841  0.00  0.00    +0.000 C 
ATOM     13  C   UNL     1       2.711  61.281   8.040  0.00  0.00    +0.000 C 
ATOM     14  C   UNL     1       3.729  62.062   7.660  0.00  0.00    +0.000 C 
ATOM     15  C   UNL     1       5.004  61.509   7.092  0.00  0.00    +0.000 C 
ATOM     16  C   UNL     1       5.214  60.225   8.085  0.00  0.00    +0.000 C 
ATOM     17  C   UNL     1       6.394  59.544   7.175  0.00  0.00    +0.000 C 
ATOM     18  C   UNL     1       6.035  59.501   5.813  0.00  0.00    +0.000 C 
ATOM     19  C   UNL     1       7.614  60.208   7.660  0.00  0.00    +0.000 C 
ATOM     20  C   UNL     1       8.918  59.566   7.418  0.00  0.00    +0.000 C 
ATOM     21  C   UNL     1       8.935  58.109   8.199  0.00  0.00    +0.000 C 
ATOM     27  C   UNL     1       7.703  57.477   7.302  0.00  0.00    +0.000 C 
ATOM     28  C   UNL     1       7.877  58.052   5.961  0.00  0.00    +0.000 C 
ATOM     29  C   UNL     1       7.955  57.749   6.171  0.00  0.00    +0.000 C 
ATOM     30  C   UNL     1       6.400  58.144   8.004  0.00  0.00    +0.000 C 
ATOM     31  C   UNL     1       5.346  57.420   6.979  0.00  0.00    +0.000 C 
ATOM     32  C   UNL     1       4.111  57.958   7.703  0.00  0.00    +0.000 C 
ATOM     33  C   UNL     1       3.964  59.394   7.461  0.00  0.00    +0.000 C 
ATOM     34  C   UNL     1       3.519  59.844   6.154  0.00  0.00    +0.000 C 
ATOM     35  C   UNL     1       1.414  62.125   8.438  0.00  0.00    +0.000 C 
ATOM     36  C   UNL     1       1.608  61.736  10.073  0.00  0.00    +0.000 C 
ATOM     37  C   UNL     1       2.769  62.832  10.253  0.00  0.00    +0.000 C 
ENDROOT
BRANCH   5   6
ATOM      6  C   UNL     1      -0.631  61.605   7.169  0.00  0.00    +0.000 C 
ATOM      7  O   UNL     1      -1.698  61.028   6.794  0.00  0.00    +0.000 OA
ATOM      8  O   UNL     1      -0.395  62.825   6.576  0.00  0.00    +0.000 OA
ENDBRANCH   5   6
BRANCH  21  22
ATOM     22  O   UNL     1       9.977  57.525   7.252  0.00  0.00    +0.000 OA
BRANCH  22  23
ATOM     23  S   UNL     1      10.827  56.359   8.013  0.00  0.00    +0.000 S 
ATOM     24  O   UNL     1      11.451  55.327   7.147  0.00  0.00    +0.000 OA
ATOM     25  O   UNL     1      10.133  55.735   9.198  0.00  0.00    +0.000 OA
ATOM     26  O   UNL     1      12.113  57.206   8.726  0.00  0.00    +0.000 OA
ENDBRANCH  22  23
ENDBRANCH  21  22
TORSDOF 3
ENDMDL
MODEL 7
REMARK VINA RESULT:      -7.5     38.406     41.334
REMARK  Name = 
REMARK  3 active torsions:
REMARK  status: ('A' for Active; 'I' for Inactive)
REMARK    1  A    between atoms: C_5  and  C_6
REMARK    2  A    between atoms: C_21  and  O_22
REMARK    3  A    between atoms: O_22  and  S_23
REMARK                            x       y       z     vdW  Elec       q    Type
REMARK                         _______ _______ _______ _____ _____    ______ ____
ROOT
ATOM      1  C   UNL     1       5.363  43.359 -23.374  0.00  0.00    +0.000 C 
ATOM      2  C   UNL     1       6.816  42.711 -23.037  0.00  0.00    +0.000 C 
ATOM      3  C   UNL     1       6.225  41.207 -23.025  0.00  0.00    +0.000 C 
ATOM      4  C   UNL     1       5.554  40.904 -21.744  0.00  0.00    +0.000 C 
ATOM      5  C   UNL     1       6.655  40.647 -20.757  0.00  0.00    +0.000 C 
ATOM      9  C   UNL     1       6.274  40.374 -19.389  0.00  0.00    +0.000 C 
ATOM     10  C   UNL     1       5.486  41.488 -18.781  0.00  0.00    +0.000 C 
ATOM     11  C   UNL     1       6.524  42.572 -18.670  0.00  0.00    +0.000 C 
ATOM     12  C   UNL     1       5.815  43.867 -18.888  0.00  0.00    +0.000 C 
ATOM     13  C   UNL     1       7.739  42.350 -19.413  0.00  0.00    +0.000 C 
ATOM     14  C   UNL     1       8.882  42.958 -19.073  0.00  0.00    +0.000 C 
ATOM     15  C   UNL     1       9.175  43.397 -17.667  0.00  0.00    +0.000 C 
ATOM     16  C   UNL     1       7.710  44.001 -17.256  0.00  0.00    +0.000 C 
ATOM     17  C   UNL     1       8.059  44.120 -15.659  0.00  0.00    +0.000 C 
ATOM     18  C   UNL     1       8.646  42.937 -15.169  0.00  0.00    +0.000 C 
ATOM     19  C   UNL     1       8.708  45.436 -15.558  0.00  0.00    +0.000 C 
ATOM     20  C   UNL     1       8.766  46.103 -14.245  0.00  0.00    +0.000 C 
ATOM     21  C   UNL     1       7.219  46.395 -13.740  0.00  0.00    +0.000 C 
ATOM     27  C   UNL     1       6.814  44.798 -13.662  0.00  0.00    +0.000 C 
ATOM     28  C   UNL     1       8.041  44.116 -13.231  0.00  0.00    +0.000 C 
ATOM     29  C   UNL     1       7.719  44.263 -13.104  0.00  0.00    +0.000 C 
ATOM     30  C   UNL     1       6.527  44.448 -15.221  0.00  0.00    +0.000 C 
ATOM     31  C   UNL     1       6.177  42.876 -14.912  0.00  0.00    +0.000 C 
ATOM     32  C   UNL     1       5.800  42.567 -16.362  0.00  0.00    +0.000 C 
ATOM     33  C   UNL     1       6.997  42.541 -17.205  0.00  0.00    +0.000 C 
ATOM     34  C   UNL     1       7.909  41.416 -17.095  0.00  0.00    +0.000 C 
ATOM     35  C   UNL     1       7.756  41.828 -20.924  0.00  0.00    +0.000 C 
ATOM     36  C   UNL     1       6.633  43.005 -21.389  0.00  0.00    +0.000 C 
ATOM     37  C   UNL     1       7.763  44.146 -21.434  0.00  0.00    +0.000 C 
ENDROOT
BRANCH   5   6
ATOM      6  C   UNL     1       7.375  39.415 -21.226  0.00  0.00    +0.000 C 
ATOM      7  O   UNL     1       6.801  38.283 -21.275  0.00  0.00    +0.000 OA
ATOM      8  O   UNL     1       8.700  39.407 -21.596  0.00  0.00    +0.000 OA
ENDBRANCH   5   6
BRANCH  21  22
ATOM     22  O   UNL     1       7.617  46.407 -12.269  0.00  0.00    +0.000 OA
BRANCH  22  23
ATOM     23  S   UNL     1       6.576  47.333 -11.419  0.00  0.00    +0.000 S 
ATOM     24  O   UNL     1       7.051  47.813 -10.097  0.00  0.00    +0.000 OA
ATOM     25  O   UNL     1       5.169  46.798 -11.337  0.00  0.00    +0.000 OA
ATOM     26  O   UNL     1       6.403  48.720 -12.381  0.00  0.00    +0.000 OA
ENDBRANCH  22  23
ENDBRANCH  21  22
TORSDOF 3
ENDMDL
MODEL 8
REMARK VINA RESULT:      -7.2     28.574     32.246
REMARK  Name = 
REMARK  3 active torsions:
REMARK  status: ('A' for Active; 'I' for Inactive)
REMARK    1  A    between atoms: C_5  and  C_6
REMARK    2  A    between atoms: C_21  and  O_22
REMARK    3  A    between atoms: O_22  and  S_23
REMARK                            x       y       z     vdW  Elec       q    Type
REMARK                         _______ _______ _______ _____ _____    ______ ____
ROOT
ATOM      1  C   UNL     1      35.035  60.511  -4.824  0.00  0.00    +0.000 C 
ATOM      2  C   UNL     1      35.172  59.744  -6.251  0.00  0.00    +0.000 C 
ATOM      3  C   UNL     1      35.148  61.131  -7.082  0.00  0.00    +0.000 C 
ATOM      4  C   UNL     1      33.769  61.638  -7.242  0.00  0.00    +0.000 C 
ATOM      5  C   UNL     1      33.149  60.799  -8.320  0.00  0.00    +0.000 C 
ATOM      9  C   UNL     1      31.763  61.051  -8.647  0.00  0.00    +0.000 C 
ATOM     10  C   UNL     1      30.856  60.871  -7.472  0.00  0.00    +0.000 C 
ATOM     11  C   UNL     1      30.925  59.384  -7.258  0.00  0.00    +0.000 C 
ATOM     12  C   UNL     1      30.813  59.158  -5.787  0.00  0.00    +0.000 C 
ATOM     13  C   UNL     1      31.988  58.702  -7.953  0.00  0.00    +0.000 C 
ATOM     14  C   UNL     1      31.912  57.394  -8.225  0.00  0.00    +0.000 C 
ATOM     15  C   UNL     1      30.603  56.679  -8.397  0.00  0.00    +0.000 C 
ATOM     16  C   UNL     1      29.752  57.367  -7.180  0.00  0.00    +0.000 C 
ATOM     17  C   UNL     1      28.306  56.780  -7.679  0.00  0.00    +0.000 C 
ATOM     18  C   UNL     1      28.113  56.987  -9.059  0.00  0.00    +0.000 C 
ATOM     19  C   UNL     1      28.255  55.447  -7.056  0.00  0.00    +0.000 C 
ATOM     20  C   UNL     1      26.948  54.787  -6.892  0.00  0.00    +0.000 C 
ATOM     21  C   UNL     1      26.016  55.717  -5.892  0.00  0.00    +0.000 C 
ATOM     27  C   UNL     1      25.989  57.008  -6.918  0.00  0.00    +0.000 C 
ATOM     28  C   UNL     1      25.977  56.421  -8.265  0.00  0.00    +0.000 C 
ATOM     29  C   UNL     1      25.753  56.559  -7.995  0.00  0.00    +0.000 C 
ATOM     30  C   UNL     1      27.438  57.686  -6.644  0.00  0.00    +0.000 C 
ATOM     31  C   UNL     1      27.203  58.883  -7.739  0.00  0.00    +0.000 C 
ATOM     32  C   UNL     1      28.519  59.588  -7.407  0.00  0.00    +0.000 C 
ATOM     33  C   UNL     1      29.653  58.814  -7.914  0.00  0.00    +0.000 C 
ATOM     34  C   UNL     1      29.907  58.794  -9.344  0.00  0.00    +0.000 C 
ATOM     35  C   UNL     1      33.490  59.245  -8.000  0.00  0.00    +0.000 C 
ATOM     36  C   UNL     1      33.515  59.450  -6.320  0.00  0.00    +0.000 C 
ATOM     37  C   UNL     1      33.752  57.879  -6.076  0.00  0.00    +0.000 C 
ENDROOT
BRANCH   5   6
ATOM      6  C   UNL     1      33.914  61.083  -9.581  0.00  0.00    +0.000 C 
ATOM      7  O   UNL     1      34.374  60.149 -10.309  0.00  0.00    +0.000 OA
ATOM      8  O   UNL     1      34.206  62.355 -10.020  0.00  0.00    +0.000 OA
ENDBRANCH   5   6
BRANCH  21  22
ATOM     22  O   UNL     1      24.714  55.177  -6.473  0.00  0.00    +0.000 OA
BRANCH  22  23
ATOM     23  S   UNL     1      23.527  55.272  -5.358  0.00  0.00    +0.000 S 
ATOM     24  O   UNL     1      22.317  54.452  -5.613  0.00  0.00    +0.000 OA
ATOM     25  O   UNL     1      23.163  56.672  -4.934  0.00  0.00    +0.000 OA
ATOM     26  O   UNL     1      24.241  54.623  -3.962  0.00  0.00    +0.000 OA
ENDBRANCH  22  23
ENDBRANCH  21  22
TORSDOF 3
ENDMDL
MODEL 9
REMARK VINA RESULT:      -7.1     39.722     42.774
REMARK  Name = 
REMARK  3 active torsions:
REMARK  status: ('A' for Active; 'I' for Inactive)
REMARK    1  A    between atoms: C_5  and  C_6
REMARK    2  A    between atoms: C_21  and  O_22
REMARK    3  A    between atoms: O_22  and  S_23
REMARK                            x       y       z     vdW  Elec       q    Type
REMARK                         _______ _______ _______ _____ _____    ______ ____
ROOT
ATOM      1  C   UNL     1      10.498  63.872 -16.224  0.00  0.00    +0.000 C 
ATOM      2  C   UNL     1      10.234  62.336 -15.761  0.00  0.00    +0.000 C 
ATOM      3  C   UNL     1      10.803  62.609 -14.273  0.00  0.00    +0.000 C 
ATOM      4  C   UNL     1      12.280  62.588 -14.251  0.00  0.00    +0.000 C 
ATOM      5  C   UNL     1      12.669  61.139 -14.304  0.00  0.00    +0.000 C 
ATOM      9  C   UNL     1      14.080  60.829 -14.348  0.00  0.00    +0.000 C 
ATOM     10  C   UNL     1      14.764  61.437 -15.530  0.00  0.00    +0.000 C 
ATOM     11  C   UNL     1      14.172  60.648 -16.666  0.00  0.00    +0.000 C 
ATOM     12  C   UNL     1      14.070  61.579 -17.827  0.00  0.00    +0.000 C 
ATOM     13  C   UNL     1      13.005  59.866 -16.340  0.00  0.00    +0.000 C 
ATOM     14  C   UNL     1      12.653  58.805 -17.077  0.00  0.00    +0.000 C 
ATOM     15  C   UNL     1      13.649  57.999 -17.859  0.00  0.00    +0.000 C 
ATOM     16  C   UNL     1      14.573  59.209 -18.460  0.00  0.00    +0.000 C 
ATOM     17  C   UNL     1      15.769  58.217 -18.981  0.00  0.00    +0.000 C 
ATOM     18  C   UNL     1      16.142  57.291 -17.987  0.00  0.00    +0.000 C 
ATOM     19  C   UNL     1      15.306  57.812 -20.318  0.00  0.00    +0.000 C 
ATOM     20  C   UNL     1      16.288  57.291 -21.284  0.00  0.00    +0.000 C 
ATOM     21  C   UNL     1      17.390  58.482 -21.601  0.00  0.00    +0.000 C 
ATOM     27  C   UNL     1      17.948  58.547 -20.050  0.00  0.00    +0.000 C 
ATOM     28  C   UNL     1      17.877  57.162 -19.564  0.00  0.00    +0.000 C 
ATOM     29  C   UNL     1      18.109  57.415 -19.718  0.00  0.00    +0.000 C 
ATOM     30  C   UNL     1      16.800  59.430 -19.317  0.00  0.00    +0.000 C 
ATOM     31  C   UNL     1      17.525  59.348 -17.849  0.00  0.00    +0.000 C 
ATOM     32  C   UNL     1      16.506  60.269 -17.178  0.00  0.00    +0.000 C 
ATOM     33  C   UNL     1      15.225  59.580 -17.017  0.00  0.00    +0.000 C 
ATOM     34  C   UNL     1      15.107  58.543 -16.006  0.00  0.00    +0.000 C 
ATOM     35  C   UNL     1      11.790  60.432 -15.470  0.00  0.00    +0.000 C 
ATOM     36  C   UNL     1      11.689  61.819 -16.433  0.00  0.00    +0.000 C 
ATOM     37  C   UNL     1      10.909  61.026 -17.592  0.00  0.00    +0.000 C 
ENDROOT
BRANCH   5   6
ATOM      6  C   UNL     1      12.161  60.510 -13.038  0.00  0.00    +0.000 C 
ATOM      7  O   UNL     1      12.532  60.917 -11.894  0.00  0.00    +0.000 OA
ATOM      8  O   UNL     1      11.298  59.438 -13.019  0.00  0.00    +0.000 OA
ENDBRANCH   5   6
BRANCH  21  22
ATOM     22  O   UNL     1      18.475  57.484 -21.991  0.00  0.00    +0.000 OA
BRANCH  22  23
ATOM     23  S   UNL     1      19.348  58.073 -23.237  0.00  0.00    +0.000 S 
ATOM     24  O   UNL     1      18.901  57.682 -24.598  0.00  0.00    +0.000 OA
ATOM     25  O   UNL     1      20.842  57.935 -23.089  0.00  0.00    +0.000 OA
ATOM     26  O   UNL     1      19.107  59.750 -23.134  0.00  0.00    +0.000 OA
ENDBRANCH  22  23
ENDBRANCH  21  22
TORSDOF 3
ENDMDL
MODEL 10
REMARK VINA RESULT:      -7.1     34.345     37.253
REMARK  Name = 
REMARK  3 active torsions:
REMARK  status: ('A' for Active; 'I' for Inactive)
REMARK    1  A    between atoms: C_5  and  C_6
REMARK    2  A    between atoms: C_21  and  O_22
REMARK    3  A    between atoms: O_22  and  S_23
REMARK                            x       y       z     vdW  Elec       q    Type
REMARK                         _______ _______ _______ _____ _____    ______ ____
ROOT
ATOM      1  C   UNL     1      -0.189  66.897  38.181  0.00  0.00    +0.000 C 
ATOM      2  C   UNL     1       0.981  67.051  39.301  0.00  0.00    +0.000 C 
ATOM      3  C   UNL     1       0.640  68.612  39.547  0.00  0.00    +0.000 C 
ATOM      4  C   UNL     1       1.237  69.464  38.497  0.00  0.00    +0.000 C 
ATOM      5  C   UNL     1       2.695  69.566  38.833  0.00  0.00    +0.000 C 
ATOM      9  C   UNL     1       3.538  70.311  37.926  0.00  0.00    +0.000 C 
ATOM     10  C   UNL     1       3.518  69.755  36.538  0.00  0.00    +0.000 C 
ATOM     11  C   UNL     1       4.235  68.446  36.723  0.00  0.00    +0.000 C 
ATOM     12  C   UNL     1       3.612  67.479  35.772  0.00  0.00    +0.000 C 
ATOM     13  C   UNL     1       4.404  68.014  38.088  0.00  0.00    +0.000 C 
ATOM     14  C   UNL     1       5.371  67.155  38.430  0.00  0.00    +0.000 C 
ATOM     15  C   UNL     1       6.653  67.032  37.657  0.00  0.00    +0.000 C 
ATOM     16  C   UNL     1       6.065  67.121  36.133  0.00  0.00    +0.000 C 
ATOM     17  C   UNL     1       7.533  67.317  35.434  0.00  0.00    +0.000 C 
ATOM     18  C   UNL     1       8.294  68.300  36.099  0.00  0.00    +0.000 C 
ATOM     19  C   UNL     1       8.001  65.935  35.248  0.00  0.00    +0.000 C 
ATOM     20  C   UNL     1       9.061  65.667  34.261  0.00  0.00    +0.000 C 
ATOM     21  C   UNL     1       8.500  66.089  32.765  0.00  0.00    +0.000 C 
ATOM     27  C   UNL     1       8.327  67.685  33.146  0.00  0.00    +0.000 C 
ATOM     28  C   UNL     1       9.432  67.975  34.070  0.00  0.00    +0.000 C 
ATOM     29  C   UNL     1       9.331  67.992  33.708  0.00  0.00    +0.000 C 
ATOM     30  C   UNL     1       6.928  67.685  33.970  0.00  0.00    +0.000 C 
ATOM     31  C   UNL     1       6.972  69.299  34.250  0.00  0.00    +0.000 C 
ATOM     32  C   UNL     1       5.602  69.323  34.931  0.00  0.00    +0.000 C 
ATOM     33  C   UNL     1       5.679  68.697  36.252  0.00  0.00    +0.000 C 
ATOM     34  C   UNL     1       6.341  69.410  37.330  0.00  0.00    +0.000 C 
ATOM     35  C   UNL     1       3.232  68.073  39.174  0.00  0.00    +0.000 C 
ATOM     36  C   UNL     1       2.160  67.293  38.123  0.00  0.00    +0.000 C 
ATOM     37  C   UNL     1       2.811  65.858  38.434  0.00  0.00    +0.000 C 
ENDROOT
BRANCH   5   6
ATOM      6  C   UNL     1       2.785  70.289  40.147  0.00  0.00    +0.000 C 
ATOM      7  O   UNL     1       3.506  69.859  41.100  0.00  0.00    +0.000 OA
ATOM      8  O   UNL     1       2.077  71.435  40.430  0.00  0.00    +0.000 OA
ENDBRANCH   5   6
BRANCH  21  22
ATOM     22  O   UNL     1       9.902  66.330  32.219  0.00  0.00    +0.000 OA
BRANCH  22  23
ATOM     23  S   UNL     1      10.377  65.051  31.324  0.00  0.00    +0.000 S 
ATOM     24  O   UNL     1      10.941  65.357  29.985  0.00  0.00    +0.000 OA
ATOM     25  O   UNL     1       9.385  63.918  31.257  0.00  0.00    +0.000 OA
ATOM     26  O   UNL     1      11.654  64.389  32.224  0.00  0.00    +0.000 OA
ENDBRANCH  22  23
ENDBRANCH  21  22
TORSDOF 3
ENDMDL
