MODEL 1
REMARK VINA RESULT:      -7.3      0.000      0.000
REMARK  Name = 
REMARK  3 active torsions:
REMARK  status: ('A' for Active; 'I' for Inactive)
REMARK    1  A    between atoms: C_2  and  O_4
REMARK    2  A    between atoms: O_4  and  C_5
REMARK    3  A    between atoms: C_26  and  C_27
REMARK                            x       y       z     vdW  Elec       q    Type
REMARK                         _______ _______ _______ _____ _____    ______ ____
ROOT
ATOM      5  C   UNL     1       8.747  45.555 -21.598  0.00  0.00    +0.000 C 
ATOM      6  C   UNL     1       9.569  46.545 -20.565  0.00  0.00    +0.000 C 
ATOM      7  C   UNL     1       8.374  46.711 -19.622  0.00  0.00    +0.000 C 
ATOM      8  C   UNL     1       8.005  45.272 -19.253  0.00  0.00    +0.000 C 
ATOM      9  C   UNL     1       6.885  44.668 -19.839  0.00  0.00    +0.000 C 
ATOM     10  C   UNL     1       9.389  44.428 -19.358  0.00  0.00    +0.000 C 
ATOM     11  C   UNL     1       8.674  43.007 -18.970  0.00  0.00    +0.000 C 
ATOM     12  C   UNL     1       8.727  43.160 -17.453  0.00  0.00    +0.000 C 
ATOM     13  C   UNL     1       7.587  44.045 -17.126  0.00  0.00    +0.000 C 
ATOM     14  C   UNL     1       6.251  43.585 -17.551  0.00  0.00    +0.000 C 
ATOM     15  C   UNL     1       7.907  45.549 -17.652  0.00  0.00    +0.000 C 
ATOM     16  C   UNL     1       6.335  46.005 -17.707  0.00  0.00    +0.000 C 
ATOM     17  C   UNL     1       5.920  46.094 -16.262  0.00  0.00    +0.000 C 
ATOM     18  C   UNL     1       6.577  45.416 -15.421  0.00  0.00    +0.000 C 
ATOM     19  C   UNL     1       6.097  45.132 -13.920  0.00  0.00    +0.000 C 
ATOM     20  C   UNL     1       4.785  46.205 -13.903  0.00  0.00    +0.000 C 
ATOM     21  C   UNL     1       5.486  47.622 -13.702  0.00  0.00    +0.000 C 
ATOM     22  C   UNL     1       4.475  45.815 -12.280  0.00  0.00    +0.000 C 
ATOM     23  C   UNL     1       3.382  47.007 -12.153  0.00  0.00    +0.000 C 
ATOM     24  C   UNL     1       5.642  46.688 -11.578  0.00  0.00    +0.000 C 
ATOM     25  C   UNL     1       6.951  46.039 -11.828  0.00  0.00    +0.000 C 
ATOM     26  C   UNL     1       7.287  45.985 -13.268  0.00  0.00    +0.000 C 
ATOM     30  C   UNL     1       8.327  44.856 -13.434  0.00  0.00    +0.000 C 
ATOM     31  C   UNL     1       8.689  44.589 -14.881  0.00  0.00    +0.000 C 
ATOM     32  C   UNL     1       7.492  44.251 -15.665  0.00  0.00    +0.000 C 
ATOM     33  C   UNL     1       6.936  42.939 -15.125  0.00  0.00    +0.000 C 
ATOM     34  C   UNL     1       9.351  44.181 -20.957  0.00  0.00    +0.000 C 
ATOM     35  C   UNL     1       8.475  43.094 -21.358  0.00  0.00    +0.000 C 
ATOM     36  C   UNL     1      10.794  44.061 -21.246  0.00  0.00    +0.000 C 
ENDROOT
BRANCH  26  27
ATOM     27  C   UNL     1       7.902  47.061 -13.908  0.00  0.00    +0.000 C 
ATOM     28  O   UNL     1       8.950  47.101 -14.634  0.00  0.00    +0.000 OA
ATOM     29  O   UNL     1       8.124  48.139 -13.008  0.00  0.00    +0.000 OA
ENDBRANCH  26  27
BRANCH   5   4
ATOM      4  O   UNL     1       9.838  45.684 -22.681  0.00  0.00    +0.000 OA
BRANCH   4   2
ATOM      1  C   UNL     1       7.880  46.492 -23.924  0.00  0.00    +0.000 C 
ATOM      2  C   UNL     1       9.359  46.334 -23.822  0.00  0.00    +0.000 C 
ATOM      3  O   UNL     1      10.122  47.217 -24.302  0.00  0.00    +0.000 OA
ENDBRANCH   4   2
ENDBRANCH   5   4
TORSDOF 3
ENDMDL
MODEL 2
REMARK VINA RESULT:      -7.2     24.941     27.693
REMARK  Name = 
REMARK  3 active torsions:
REMARK  status: ('A' for Active; 'I' for Inactive)
REMARK    1  A    between atoms: C_2  and  O_4
REMARK    2  A    between atoms: O_4  and  C_5
REMARK    3  A    between atoms: C_26  and  C_27
REMARK                            x       y       z     vdW  Elec       q    Type
REMARK                         _______ _______ _______ _____ _____    ______ ____
ROOT
ATOM      5  C   UNL     1      24.943  55.886  -5.707  0.00  0.00    +0.000 C 
ATOM      6  C   UNL     1      25.879  55.258  -6.912  0.00  0.00    +0.000 C 
ATOM      7  C   UNL     1      26.419  56.627  -7.335  0.00  0.00    +0.000 C 
ATOM      8  C   UNL     1      27.020  57.191  -6.045  0.00  0.00    +0.000 C 
ATOM      9  C   UNL     1      26.333  58.183  -5.334  0.00  0.00    +0.000 C 
ATOM     10  C   UNL     1      27.476  55.897  -5.177  0.00  0.00    +0.000 C 
ATOM     11  C   UNL     1      28.002  56.799  -3.916  0.00  0.00    +0.000 C 
ATOM     12  C   UNL     1      29.399  57.100  -4.450  0.00  0.00    +0.000 C 
ATOM     13  C   UNL     1      29.202  58.208  -5.410  0.00  0.00    +0.000 C 
ATOM     14  C   UNL     1      28.577  59.436  -4.883  0.00  0.00    +0.000 C 
ATOM     15  C   UNL     1      28.427  57.648  -6.723  0.00  0.00    +0.000 C 
ATOM     16  C   UNL     1      27.866  59.118  -7.181  0.00  0.00    +0.000 C 
ATOM     17  C   UNL     1      29.093  59.859  -7.643  0.00  0.00    +0.000 C 
ATOM     18  C   UNL     1      30.211  59.482  -7.189  0.00  0.00    +0.000 C 
ATOM     19  C   UNL     1      31.564  60.331  -7.307  0.00  0.00    +0.000 C 
ATOM     20  C   UNL     1      30.987  61.516  -8.373  0.00  0.00    +0.000 C 
ATOM     21  C   UNL     1      31.010  60.768  -9.781  0.00  0.00    +0.000 C 
ATOM     22  C   UNL     1      32.523  62.238  -8.416  0.00  0.00    +0.000 C 
ATOM     23  C   UNL     1      32.077  63.227  -9.622  0.00  0.00    +0.000 C 
ATOM     24  C   UNL     1      33.266  61.206  -9.417  0.00  0.00    +0.000 C 
ATOM     25  C   UNL     1      33.520  59.933  -8.701  0.00  0.00    +0.000 C 
ATOM     26  C   UNL     1      32.270  59.266  -8.275  0.00  0.00    +0.000 C 
ATOM     30  C   UNL     1      32.652  58.313  -7.122  0.00  0.00    +0.000 C 
ATOM     31  C   UNL     1      31.453  57.638  -6.488  0.00  0.00    +0.000 C 
ATOM     32  C   UNL     1      30.496  58.634  -5.983  0.00  0.00    +0.000 C 
ATOM     33  C   UNL     1      31.179  59.411  -4.863  0.00  0.00    +0.000 C 
ATOM     34  C   UNL     1      26.029  55.570  -4.531  0.00  0.00    +0.000 C 
ATOM     35  C   UNL     1      25.694  56.410  -3.395  0.00  0.00    +0.000 C 
ATOM     36  C   UNL     1      26.153  54.114  -4.314  0.00  0.00    +0.000 C 
ENDROOT
BRANCH  26  27
ATOM     27  C   UNL     1      31.566  58.428  -9.140  0.00  0.00    +0.000 C 
ATOM     28  O   UNL     1      30.974  57.321  -8.918  0.00  0.00    +0.000 OA
ATOM     29  O   UNL     1      32.327  58.130 -10.303  0.00  0.00    +0.000 OA
ENDBRANCH  26  27
BRANCH   5   4
ATOM      4  O   UNL     1      24.174  54.560  -5.535  0.00  0.00    +0.000 OA
BRANCH   4   2
ATOM      1  C   UNL     1      22.330  56.078  -4.965  0.00  0.00    +0.000 C 
ATOM      2  C   UNL     1      22.792  54.764  -5.498  0.00  0.00    +0.000 C 
ATOM      3  O   UNL     1      22.135  54.187  -6.407  0.00  0.00    +0.000 OA
ENDBRANCH   4   2
ENDBRANCH   5   4
TORSDOF 3
ENDMDL
MODEL 3
REMARK VINA RESULT:      -7.2     34.953     40.543
REMARK  Name = 
REMARK  3 active torsions:
REMARK  status: ('A' for Active; 'I' for Inactive)
REMARK    1  A    between atoms: C_2  and  O_4
REMARK    2  A    between atoms: O_4  and  C_5
REMARK    3  A    between atoms: C_26  and  C_27
REMARK                            x       y       z     vdW  Elec       q    Type
REMARK                         _______ _______ _______ _____ _____    ______ ____
ROOT
ATOM      5  C   UNL     1       5.391  52.629  18.276  0.00  0.00    +0.000 C 
ATOM      6  C   UNL     1       6.207  51.422  19.051  0.00  0.00    +0.000 C 
ATOM      7  C   UNL     1       7.194  52.387  19.714  0.00  0.00    +0.000 C 
ATOM      8  C   UNL     1       6.289  53.369  20.462  0.00  0.00    +0.000 C 
ATOM      9  C   UNL     1       6.077  54.653  19.943  0.00  0.00    +0.000 C 
ATOM     10  C   UNL     1       4.945  52.532  20.824  0.00  0.00    +0.000 C 
ATOM     11  C   UNL     1       4.213  53.813  21.533  0.00  0.00    +0.000 C 
ATOM     12  C   UNL     1       4.838  53.663  22.917  0.00  0.00    +0.000 C 
ATOM     13  C   UNL     1       6.186  54.261  22.784  0.00  0.00    +0.000 C 
ATOM     14  C   UNL     1       6.244  55.667  22.342  0.00  0.00    +0.000 C 
ATOM     15  C   UNL     1       7.112  53.295  21.863  0.00  0.00    +0.000 C 
ATOM     16  C   UNL     1       8.163  54.481  21.447  0.00  0.00    +0.000 C 
ATOM     17  C   UNL     1       8.916  54.778  22.716  0.00  0.00    +0.000 C 
ATOM     18  C   UNL     1       8.353  54.491  23.812  0.00  0.00    +0.000 C 
ATOM     19  C   UNL     1       8.845  55.016  25.243  0.00  0.00    +0.000 C 
ATOM     20  C   UNL     1      10.317  55.686  24.735  0.00  0.00    +0.000 C 
ATOM     21  C   UNL     1      11.255  54.406  24.578  0.00  0.00    +0.000 C 
ATOM     22  C   UNL     1      10.688  56.107  26.338  0.00  0.00    +0.000 C 
ATOM     23  C   UNL     1      12.201  56.525  25.928  0.00  0.00    +0.000 C 
ATOM     24  C   UNL     1      11.142  54.654  26.888  0.00  0.00    +0.000 C 
ATOM     25  C   UNL     1       9.942  53.797  27.042  0.00  0.00    +0.000 C 
ATOM     26  C   UNL     1       9.254  53.553  25.754  0.00  0.00    +0.000 C 
ATOM     30  C   UNL     1       7.804  53.154  26.101  0.00  0.00    +0.000 C 
ATOM     31  C   UNL     1       6.926  52.986  24.877  0.00  0.00    +0.000 C 
ATOM     32  C   UNL     1       6.900  54.220  24.078  0.00  0.00    +0.000 C 
ATOM     33  C   UNL     1       6.241  55.307  24.919  0.00  0.00    +0.000 C 
ATOM     34  C   UNL     1       4.207  52.712  19.395  0.00  0.00    +0.000 C 
ATOM     35  C   UNL     1       3.551  53.999  19.236  0.00  0.00    +0.000 C 
ATOM     36  C   UNL     1       3.374  51.493  19.365  0.00  0.00    +0.000 C 
ENDROOT
BRANCH  26  27
ATOM     27  C   UNL     1       9.657  52.525  24.902  0.00  0.00    +0.000 C 
ATOM     28  O   UNL     1       8.971  51.637  24.297  0.00  0.00    +0.000 OA
ATOM     29  O   UNL     1      10.698  51.751  25.484  0.00  0.00    +0.000 OA
ENDBRANCH  26  27
BRANCH   5   4
ATOM      4  O   UNL     1       4.647  51.623  17.373  0.00  0.00    +0.000 OA
BRANCH   4   2
ATOM      1  C   UNL     1       5.450  50.902  15.167  0.00  0.00    +0.000 C 
ATOM      2  C   UNL     1       4.796  51.937  16.019  0.00  0.00    +0.000 C 
ATOM      3  O   UNL     1       3.896  52.677  15.533  0.00  0.00    +0.000 OA
ENDBRANCH   4   2
ENDBRANCH   5   4
TORSDOF 3
ENDMDL
MODEL 4
REMARK VINA RESULT:      -7.2      4.637      8.232
REMARK  Name = 
REMARK  3 active torsions:
REMARK  status: ('A' for Active; 'I' for Inactive)
REMARK    1  A    between atoms: C_2  and  O_4
REMARK    2  A    between atoms: O_4  and  C_5
REMARK    3  A    between atoms: C_26  and  C_27
REMARK                            x       y       z     vdW  Elec       q    Type
REMARK                         _______ _______ _______ _____ _____    ______ ____
ROOT
ATOM      5  C   UNL     1       6.987  45.159 -13.564  0.00  0.00    +0.000 C 
ATOM      6  C   UNL     1       7.525  43.792 -12.813  0.00  0.00    +0.000 C 
ATOM      7  C   UNL     1       6.396  42.924 -13.375  0.00  0.00    +0.000 C 
ATOM      8  C   UNL     1       6.510  43.122 -14.889  0.00  0.00    +0.000 C 
ATOM      9  C   UNL     1       5.597  43.951 -15.553  0.00  0.00    +0.000 C 
ATOM     10  C   UNL     1       8.077  43.444 -15.168  0.00  0.00    +0.000 C 
ATOM     11  C   UNL     1       7.857  43.639 -16.778  0.00  0.00    +0.000 C 
ATOM     12  C   UNL     1       7.952  42.168 -17.175  0.00  0.00    +0.000 C 
ATOM     13  C   UNL     1       6.617  41.611 -16.865  0.00  0.00    +0.000 C 
ATOM     14  C   UNL     1       5.464  42.250 -17.528  0.00  0.00    +0.000 C 
ATOM     15  C   UNL     1       6.428  41.538 -15.253  0.00  0.00    +0.000 C 
ATOM     16  C   UNL     1       4.791  41.515 -15.315  0.00  0.00    +0.000 C 
ATOM     17  C   UNL     1       4.456  40.163 -15.886  0.00  0.00    +0.000 C 
ATOM     18  C   UNL     1       5.339  39.587 -16.585  0.00  0.00    +0.000 C 
ATOM     19  C   UNL     1       5.060  38.321 -17.525  0.00  0.00    +0.000 C 
ATOM     20  C   UNL     1       3.485  37.994 -16.990  0.00  0.00    +0.000 C 
ATOM     21  C   UNL     1       3.728  37.254 -15.599  0.00  0.00    +0.000 C 
ATOM     22  C   UNL     1       3.408  36.642 -18.015  0.00  0.00    +0.000 C 
ATOM     23  C   UNL     1       2.011  36.156 -17.348  0.00  0.00    +0.000 C 
ATOM     24  C   UNL     1       4.291  35.605 -17.141  0.00  0.00    +0.000 C 
ATOM     25  C   UNL     1       5.718  35.996 -17.220  0.00  0.00    +0.000 C 
ATOM     26  C   UNL     1       5.968  37.336 -16.643  0.00  0.00    +0.000 C 
ATOM     30  C   UNL     1       7.292  37.838 -17.257  0.00  0.00    +0.000 C 
ATOM     31  C   UNL     1       7.631  39.260 -16.858  0.00  0.00    +0.000 C 
ATOM     32  C   UNL     1       6.551  40.183 -17.241  0.00  0.00    +0.000 C 
ATOM     33  C   UNL     1       6.458  40.186 -18.762  0.00  0.00    +0.000 C 
ATOM     34  C   UNL     1       8.020  45.024 -14.820  0.00  0.00    +0.000 C 
ATOM     35  C   UNL     1       7.498  45.840 -15.901  0.00  0.00    +0.000 C 
ATOM     36  C   UNL     1       9.411  45.252 -14.377  0.00  0.00    +0.000 C 
ENDROOT
BRANCH  26  27
ATOM     27  C   UNL     1       6.183  37.508 -15.276  0.00  0.00    +0.000 C 
ATOM     28  O   UNL     1       7.033  38.230 -14.658  0.00  0.00    +0.000 OA
ATOM     29  O   UNL     1       6.319  36.257 -14.614  0.00  0.00    +0.000 OA
ENDBRANCH  26  27
BRANCH   5   4
ATOM      4  O   UNL     1       7.918  46.056 -12.724  0.00  0.00    +0.000 OA
BRANCH   4   2
ATOM      1  C   UNL     1       6.750  47.319 -10.972  0.00  0.00    +0.000 C 
ATOM      2  C   UNL     1       7.293  47.252 -12.359  0.00  0.00    +0.000 C 
ATOM      3  O   UNL     1       7.752  48.292 -12.908  0.00  0.00    +0.000 OA
ENDBRANCH   4   2
ENDBRANCH   5   4
TORSDOF 3
ENDMDL
MODEL 5
REMARK VINA RESULT:      -7.1      4.131      7.915
REMARK  Name = 
REMARK  3 active torsions:
REMARK  status: ('A' for Active; 'I' for Inactive)
REMARK    1  A    between atoms: C_2  and  O_4
REMARK    2  A    between atoms: O_4  and  C_5
REMARK    3  A    between atoms: C_26  and  C_27
REMARK                            x       y       z     vdW  Elec       q    Type
REMARK                         _______ _______ _______ _____ _____    ______ ____
ROOT
ATOM      5  C   UNL     1       5.410  47.914 -13.396  0.00  0.00    +0.000 C 
ATOM      6  C   UNL     1       4.327  46.687 -13.180  0.00  0.00    +0.000 C 
ATOM      7  C   UNL     1       4.677  46.018 -14.512  0.00  0.00    +0.000 C 
ATOM      8  C   UNL     1       6.189  45.797 -14.418  0.00  0.00    +0.000 C 
ATOM      9  C   UNL     1       7.059  46.636 -15.126  0.00  0.00    +0.000 C 
ATOM     10  C   UNL     1       6.506  45.638 -12.834  0.00  0.00    +0.000 C 
ATOM     11  C   UNL     1       8.118  45.474 -13.067  0.00  0.00    +0.000 C 
ATOM     12  C   UNL     1       8.130  43.975 -13.356  0.00  0.00    +0.000 C 
ATOM     13  C   UNL     1       7.718  43.865 -14.773  0.00  0.00    +0.000 C 
ATOM     14  C   UNL     1       8.545  44.586 -15.760  0.00  0.00    +0.000 C 
ATOM     15  C   UNL     1       6.144  44.246 -14.905  0.00  0.00    +0.000 C 
ATOM     16  C   UNL     1       6.233  44.618 -16.498  0.00  0.00    +0.000 C 
ATOM     17  C   UNL     1       6.452  43.294 -17.181  0.00  0.00    +0.000 C 
ATOM     18  C   UNL     1       6.965  42.360 -16.499  0.00  0.00    +0.000 C 
ATOM     19  C   UNL     1       7.561  41.011 -17.122  0.00  0.00    +0.000 C 
ATOM     20  C   UNL     1       6.994  41.232 -18.704  0.00  0.00    +0.000 C 
ATOM     21  C   UNL     1       5.457  40.825 -18.592  0.00  0.00    +0.000 C 
ATOM     22  C   UNL     1       7.647  39.732 -19.157  0.00  0.00    +0.000 C 
ATOM     23  C   UNL     1       6.910  39.793 -20.600  0.00  0.00    +0.000 C 
ATOM     24  C   UNL     1       6.522  38.758 -18.521  0.00  0.00    +0.000 C 
ATOM     25  C   UNL     1       6.666  38.748 -17.046  0.00  0.00    +0.000 C 
ATOM     26  C   UNL     1       6.441  40.083 -16.448  0.00  0.00    +0.000 C 
ATOM     30  C   UNL     1       7.133  40.068 -15.069  0.00  0.00    +0.000 C 
ATOM     31  C   UNL     1       7.098  41.414 -14.372  0.00  0.00    +0.000 C 
ATOM     32  C   UNL     1       7.724  42.451 -15.206  0.00  0.00    +0.000 C 
ATOM     33  C   UNL     1       9.198  42.099 -15.360  0.00  0.00    +0.000 C 
ATOM     34  C   UNL     1       6.568  47.217 -12.483  0.00  0.00    +0.000 C 
ATOM     35  C   UNL     1       7.831  47.842 -12.833  0.00  0.00    +0.000 C 
ATOM     36  C   UNL     1       6.168  47.193 -11.061  0.00  0.00    +0.000 C 
ENDROOT
BRANCH  26  27
ATOM     27  C   UNL     1       5.156  40.530 -16.139  0.00  0.00    +0.000 C 
ATOM     28  O   UNL     1       4.722  41.148 -15.112  0.00  0.00    +0.000 OA
ATOM     29  O   UNL     1       4.199  39.489 -16.285  0.00  0.00    +0.000 OA
ENDBRANCH  26  27
BRANCH   5   4
ATOM      4  O   UNL     1       4.803  48.730 -12.236  0.00  0.00    +0.000 OA
BRANCH   4   2
ATOM      1  C   UNL     1       4.392  50.332 -14.051  0.00  0.00    +0.000 C 
ATOM      2  C   UNL     1       4.037  49.802 -12.704  0.00  0.00    +0.000 C 
ATOM      3  O   UNL     1       2.837  49.820 -12.315  0.00  0.00    +0.000 OA
ENDBRANCH   4   2
ENDBRANCH   5   4
TORSDOF 3
ENDMDL
MODEL 6
REMARK VINA RESULT:      -7.0      5.237      8.688
REMARK  Name = 
REMARK  3 active torsions:
REMARK  status: ('A' for Active; 'I' for Inactive)
REMARK    1  A    between atoms: C_2  and  O_4
REMARK    2  A    between atoms: O_4  and  C_5
REMARK    3  A    between atoms: C_26  and  C_27
REMARK                            x       y       z     vdW  Elec       q    Type
REMARK                         _______ _______ _______ _____ _____    ______ ____
ROOT
ATOM      5  C   UNL     1       7.634  44.192 -14.830  0.00  0.00    +0.000 C 
ATOM      6  C   UNL     1       8.931  43.334 -15.382  0.00  0.00    +0.000 C 
ATOM      7  C   UNL     1       8.307  41.981 -15.028  0.00  0.00    +0.000 C 
ATOM      8  C   UNL     1       6.967  41.999 -15.768  0.00  0.00    +0.000 C 
ATOM      9  C   UNL     1       5.782  42.225 -15.056  0.00  0.00    +0.000 C 
ATOM     10  C   UNL     1       7.198  42.954 -17.061  0.00  0.00    +0.000 C 
ATOM     11  C   UNL     1       5.652  42.805 -17.578  0.00  0.00    +0.000 C 
ATOM     12  C   UNL     1       5.819  41.498 -18.347  0.00  0.00    +0.000 C 
ATOM     13  C   UNL     1       5.778  40.445 -17.307  0.00  0.00    +0.000 C 
ATOM     14  C   UNL     1       4.567  40.395 -16.465  0.00  0.00    +0.000 C 
ATOM     15  C   UNL     1       7.135  40.517 -16.417  0.00  0.00    +0.000 C 
ATOM     16  C   UNL     1       6.484  39.747 -15.126  0.00  0.00    +0.000 C 
ATOM     17  C   UNL     1       6.303  38.326 -15.588  0.00  0.00    +0.000 C 
ATOM     18  C   UNL     1       6.207  38.122 -16.833  0.00  0.00    +0.000 C 
ATOM     19  C   UNL     1       5.698  36.751 -17.485  0.00  0.00    +0.000 C 
ATOM     20  C   UNL     1       5.689  35.824 -16.066  0.00  0.00    +0.000 C 
ATOM     21  C   UNL     1       7.230  35.473 -15.860  0.00  0.00    +0.000 C 
ATOM     22  C   UNL     1       5.208  34.458 -16.951  0.00  0.00    +0.000 C 
ATOM     23  C   UNL     1       5.431  33.489 -15.669  0.00  0.00    +0.000 C 
ATOM     24  C   UNL     1       6.632  34.063 -17.611  0.00  0.00    +0.000 C 
ATOM     25  C   UNL     1       6.963  35.043 -18.673  0.00  0.00    +0.000 C 
ATOM     26  C   UNL     1       7.121  36.416 -18.143  0.00  0.00    +0.000 C 
ATOM     30  C   UNL     1       6.913  37.373 -19.336  0.00  0.00    +0.000 C 
ATOM     31  C   UNL     1       6.922  38.834 -18.934  0.00  0.00    +0.000 C 
ATOM     32  C   UNL     1       5.890  39.105 -17.922  0.00  0.00    +0.000 C 
ATOM     33  C   UNL     1       4.531  38.858 -18.564  0.00  0.00    +0.000 C 
ATOM     34  C   UNL     1       6.967  44.368 -16.309  0.00  0.00    +0.000 C 
ATOM     35  C   UNL     1       5.567  44.703 -16.116  0.00  0.00    +0.000 C 
ATOM     36  C   UNL     1       7.792  45.260 -17.150  0.00  0.00    +0.000 C 
ENDROOT
BRANCH  26  27
ATOM     27  C   UNL     1       8.335  36.852 -17.613  0.00  0.00    +0.000 C 
ATOM     28  O   UNL     1       9.042  37.873 -17.899  0.00  0.00    +0.000 OA
ATOM     29  O   UNL     1       9.304  35.810 -17.617  0.00  0.00    +0.000 OA
ENDBRANCH  26  27
BRANCH   5   4
ATOM      4  O   UNL     1       8.418  45.519 -14.882  0.00  0.00    +0.000 OA
BRANCH   4   2
ATOM      1  C   UNL     1       7.536  45.876 -12.617  0.00  0.00    +0.000 C 
ATOM      2  C   UNL     1       7.945  46.435 -13.938  0.00  0.00    +0.000 C 
ATOM      3  O   UNL     1       8.450  47.590 -14.004  0.00  0.00    +0.000 OA
ENDBRANCH   4   2
ENDBRANCH   5   4
TORSDOF 3
ENDMDL
MODEL 7
REMARK VINA RESULT:      -7.0     12.909     14.727
REMARK  Name = 
REMARK  3 active torsions:
REMARK  status: ('A' for Active; 'I' for Inactive)
REMARK    1  A    between atoms: C_2  and  O_4
REMARK    2  A    between atoms: O_4  and  C_5
REMARK    3  A    between atoms: C_26  and  C_27
REMARK                            x       y       z     vdW  Elec       q    Type
REMARK                         _______ _______ _______ _____ _____    ______ ____
ROOT
ATOM      5  C   UNL     1      16.669  58.876 -18.883  0.00  0.00    +0.000 C 
ATOM      6  C   UNL     1      15.469  57.987 -19.584  0.00  0.00    +0.000 C 
ATOM      7  C   UNL     1      14.836  57.608 -18.243  0.00  0.00    +0.000 C 
ATOM      8  C   UNL     1      14.566  58.961 -17.578  0.00  0.00    +0.000 C 
ATOM      9  C   UNL     1      15.402  59.407 -16.546  0.00  0.00    +0.000 C 
ATOM     10  C   UNL     1      14.343  60.008 -18.798  0.00  0.00    +0.000 C 
ATOM     11  C   UNL     1      14.138  61.289 -17.800  0.00  0.00    +0.000 C 
ATOM     12  C   UNL     1      12.651  61.093 -17.520  0.00  0.00    +0.000 C 
ATOM     13  C   UNL     1      12.601  60.033 -16.487  0.00  0.00    +0.000 C 
ATOM     14  C   UNL     1      13.331  60.300 -15.233  0.00  0.00    +0.000 C 
ATOM     15  C   UNL     1      13.034  58.616 -17.153  0.00  0.00    +0.000 C 
ATOM     16  C   UNL     1      13.458  57.928 -15.728  0.00  0.00    +0.000 C 
ATOM     17  C   UNL     1      12.152  57.725 -15.006  0.00  0.00    +0.000 C 
ATOM     18  C   UNL     1      11.181  58.466 -15.333  0.00  0.00    +0.000 C 
ATOM     19  C   UNL     1       9.836  58.621 -14.477  0.00  0.00    +0.000 C 
ATOM     20  C   UNL     1      10.129  57.361 -13.382  0.00  0.00    +0.000 C 
ATOM     21  C   UNL     1       9.765  56.061 -14.229  0.00  0.00    +0.000 C 
ATOM     22  C   UNL     1       8.626  57.642 -12.644  0.00  0.00    +0.000 C 
ATOM     23  C   UNL     1       8.758  56.294 -11.751  0.00  0.00    +0.000 C 
ATOM     24  C   UNL     1       7.665  56.932 -13.736  0.00  0.00    +0.000 C 
ATOM     25  C   UNL     1       7.600  57.782 -14.949  0.00  0.00    +0.000 C 
ATOM     26  C   UNL     1       8.920  57.937 -15.601  0.00  0.00    +0.000 C 
ATOM     30  C   UNL     1       8.837  59.215 -16.461  0.00  0.00    +0.000 C 
ATOM     31  C   UNL     1      10.158  59.585 -17.105  0.00  0.00    +0.000 C 
ATOM     32  C   UNL     1      11.204  59.765 -16.087  0.00  0.00    +0.000 C 
ATOM     33  C   UNL     1      10.813  60.957 -15.222  0.00  0.00    +0.000 C 
ATOM     34  C   UNL     1      15.906  60.302 -19.097  0.00  0.00    +0.000 C 
ATOM     35  C   UNL     1      16.505  61.256 -18.181  0.00  0.00    +0.000 C 
ATOM     36  C   UNL     1      15.846  60.651 -20.532  0.00  0.00    +0.000 C 
ENDROOT
BRANCH  26  27
ATOM     27  C   UNL     1       9.394  56.990 -16.509  0.00  0.00    +0.000 C 
ATOM     28  O   UNL     1       9.929  57.142 -17.656  0.00  0.00    +0.000 OA
ATOM     29  O   UNL     1       8.420  55.987 -16.766  0.00  0.00    +0.000 OA
ENDBRANCH  26  27
BRANCH   5   4
ATOM      4  O   UNL     1      17.462  58.953 -20.203  0.00  0.00    +0.000 OA
BRANCH   4   2
ATOM      1  C   UNL     1      18.250  57.526 -22.041  0.00  0.00    +0.000 C 
ATOM      2  C   UNL     1      17.940  57.698 -20.592  0.00  0.00    +0.000 C 
ATOM      3  O   UNL     1      18.623  57.086 -19.725  0.00  0.00    +0.000 OA
ENDBRANCH   4   2
ENDBRANCH   5   4
TORSDOF 3
ENDMDL
MODEL 8
REMARK VINA RESULT:      -7.0      4.114      6.355
REMARK  Name = 
REMARK  3 active torsions:
REMARK  status: ('A' for Active; 'I' for Inactive)
REMARK    1  A    between atoms: C_2  and  O_4
REMARK    2  A    between atoms: O_4  and  C_5
REMARK    3  A    between atoms: C_26  and  C_27
REMARK                            x       y       z     vdW  Elec       q    Type
REMARK                         _______ _______ _______ _____ _____    ______ ____
ROOT
ATOM      5  C   UNL     1       5.952  38.368 -16.310  0.00  0.00    +0.000 C 
ATOM      6  C   UNL     1       4.572  39.272 -16.360  0.00  0.00    +0.000 C 
ATOM      7  C   UNL     1       5.037  40.215 -15.246  0.00  0.00    +0.000 C 
ATOM      8  C   UNL     1       6.378  40.744 -15.760  0.00  0.00    +0.000 C 
ATOM      9  C   UNL     1       7.574  40.248 -15.224  0.00  0.00    +0.000 C 
ATOM     10  C   UNL     1       6.269  40.703 -17.380  0.00  0.00    +0.000 C 
ATOM     11  C   UNL     1       7.795  41.255 -17.600  0.00  0.00    +0.000 C 
ATOM     12  C   UNL     1       7.490  42.746 -17.485  0.00  0.00    +0.000 C 
ATOM     13  C   UNL     1       7.402  42.998 -16.029  0.00  0.00    +0.000 C 
ATOM     14  C   UNL     1       8.591  42.652 -15.226  0.00  0.00    +0.000 C 
ATOM     15  C   UNL     1       6.053  42.307 -15.446  0.00  0.00    +0.000 C 
ATOM     16  C   UNL     1       6.600  42.235 -13.903  0.00  0.00    +0.000 C 
ATOM     17  C   UNL     1       6.625  43.669 -13.447  0.00  0.00    +0.000 C 
ATOM     18  C   UNL     1       6.710  44.566 -14.335  0.00  0.00    +0.000 C 
ATOM     19  C   UNL     1       7.070  46.098 -14.039  0.00  0.00    +0.000 C 
ATOM     20  C   UNL     1       6.960  46.024 -12.348  0.00  0.00    +0.000 C 
ATOM     21  C   UNL     1       5.387  46.058 -12.092  0.00  0.00    +0.000 C 
ATOM     22  C   UNL     1       7.295  47.686 -12.246  0.00  0.00    +0.000 C 
ATOM     23  C   UNL     1       6.951  47.706 -10.661  0.00  0.00    +0.000 C 
ATOM     24  C   UNL     1       5.842  48.268 -12.660  0.00  0.00    +0.000 C 
ATOM     25  C   UNL     1       5.634  48.063 -14.113  0.00  0.00    +0.000 C 
ATOM     26  C   UNL     1       5.625  46.631 -14.485  0.00  0.00    +0.000 C 
ATOM     30  C   UNL     1       5.952  46.567 -15.993  0.00  0.00    +0.000 C 
ATOM     31  C   UNL     1       6.102  45.150 -16.509  0.00  0.00    +0.000 C 
ATOM     32  C   UNL     1       7.147  44.430 -15.766  0.00  0.00    +0.000 C 
ATOM     33  C   UNL     1       8.477  45.119 -16.045  0.00  0.00    +0.000 C 
ATOM     34  C   UNL     1       6.650  39.141 -17.566  0.00  0.00    +0.000 C 
ATOM     35  C   UNL     1       8.076  38.877 -17.499  0.00  0.00    +0.000 C 
ATOM     36  C   UNL     1       5.939  38.838 -18.825  0.00  0.00    +0.000 C 
ENDROOT
BRANCH  26  27
ATOM     27  C   UNL     1       4.462  45.866 -14.394  0.00  0.00    +0.000 C 
ATOM     28  O   UNL     1       3.936  45.060 -15.231  0.00  0.00    +0.000 OA
ATOM     29  O   UNL     1       3.349  46.664 -14.011  0.00  0.00    +0.000 OA
ENDBRANCH  26  27
BRANCH   5   4
ATOM      4  O   UNL     1       5.322  37.257 -17.174  0.00  0.00    +0.000 OA
BRANCH   4   2
ATOM      1  C   UNL     1       6.679  35.869 -15.670  0.00  0.00    +0.000 C 
ATOM      2  C   UNL     1       5.543  35.989 -16.628  0.00  0.00    +0.000 C 
ATOM      3  O   UNL     1       4.511  35.278 -16.475  0.00  0.00    +0.000 OA
ENDBRANCH   4   2
ENDBRANCH   5   4
TORSDOF 3
ENDMDL
MODEL 9
REMARK VINA RESULT:      -6.9     40.194     42.579
REMARK  Name = 
REMARK  3 active torsions:
REMARK  status: ('A' for Active; 'I' for Inactive)
REMARK    1  A    between atoms: C_2  and  O_4
REMARK    2  A    between atoms: O_4  and  C_5
REMARK    3  A    between atoms: C_26  and  C_27
REMARK                            x       y       z     vdW  Elec       q    Type
REMARK                         _______ _______ _______ _____ _____    ______ ____
ROOT
ATOM      5  C   UNL     1      26.630  78.185 -34.288  0.00  0.00    +0.000 C 
ATOM      6  C   UNL     1      25.949  77.616 -32.897  0.00  0.00    +0.000 C 
ATOM      7  C   UNL     1      27.034  78.226 -32.005  0.00  0.00    +0.000 C 
ATOM      8  C   UNL     1      27.012  79.711 -32.376  0.00  0.00    +0.000 C 
ATOM      9  C   UNL     1      28.019  80.239 -33.194  0.00  0.00    +0.000 C 
ATOM     10  C   UNL     1      25.491  80.016 -32.856  0.00  0.00    +0.000 C 
ATOM     11  C   UNL     1      25.805  81.584 -33.207  0.00  0.00    +0.000 C 
ATOM     12  C   UNL     1      25.616  82.148 -31.802  0.00  0.00    +0.000 C 
ATOM     13  C   UNL     1      26.886  81.849 -31.105  0.00  0.00    +0.000 C 
ATOM     14  C   UNL     1      28.117  82.387 -31.715  0.00  0.00    +0.000 C 
ATOM     15  C   UNL     1      26.988  80.249 -30.840  0.00  0.00    +0.000 C 
ATOM     16  C   UNL     1      28.619  80.246 -30.688  0.00  0.00    +0.000 C 
ATOM     17  C   UNL     1      28.876  80.952 -29.383  0.00  0.00    +0.000 C 
ATOM     18  C   UNL     1      27.987  81.748 -28.964  0.00  0.00    +0.000 C 
ATOM     19  C   UNL     1      28.212  82.813 -27.789  0.00  0.00    +0.000 C 
ATOM     20  C   UNL     1      29.728  82.254 -27.275  0.00  0.00    +0.000 C 
ATOM     21  C   UNL     1      29.359  80.967 -26.410  0.00  0.00    +0.000 C 
ATOM     22  C   UNL     1      29.751  83.421 -26.043  0.00  0.00    +0.000 C 
ATOM     23  C   UNL     1      31.070  82.757 -25.372  0.00  0.00    +0.000 C 
ATOM     24  C   UNL     1      28.747  82.708 -24.993  0.00  0.00    +0.000 C 
ATOM     25  C   UNL     1      27.360  82.800 -25.508  0.00  0.00    +0.000 C 
ATOM     26  C   UNL     1      27.187  82.086 -26.793  0.00  0.00    +0.000 C 
ATOM     30  C   UNL     1      25.938  82.693 -27.467  0.00  0.00    +0.000 C 
ATOM     31  C   UNL     1      25.692  82.150 -28.861  0.00  0.00    +0.000 C 
ATOM     32  C   UNL     1      26.859  82.381 -29.726  0.00  0.00    +0.000 C 
ATOM     33  C   UNL     1      27.028  83.887 -29.889  0.00  0.00    +0.000 C 
ATOM     34  C   UNL     1      25.653  79.489 -34.378  0.00  0.00    +0.000 C 
ATOM     35  C   UNL     1      26.291  80.448 -35.262  0.00  0.00    +0.000 C 
ATOM     36  C   UNL     1      24.264  79.080 -34.671  0.00  0.00    +0.000 C 
ENDROOT
BRANCH  26  27
ATOM     27  C   UNL     1      26.918  80.718 -26.831  0.00  0.00    +0.000 C 
ATOM     28  O   UNL     1      26.077  80.061 -27.528  0.00  0.00    +0.000 OA
ATOM     29  O   UNL     1      26.690  80.201 -25.526  0.00  0.00    +0.000 OA
ENDBRANCH  26  27
BRANCH   5   4
ATOM      4  O   UNL     1      25.730  77.287 -35.162  0.00  0.00    +0.000 OA
BRANCH   4   2
ATOM      1  C   UNL     1      26.050  75.295 -36.561  0.00  0.00    +0.000 C 
ATOM      2  C   UNL     1      26.451  76.684 -36.196  0.00  0.00    +0.000 C 
ATOM      3  O   UNL     1      26.884  77.469 -37.085  0.00  0.00    +0.000 OA
ENDBRANCH   4   2
ENDBRANCH   5   4
TORSDOF 3
ENDMDL
MODEL 10
REMARK VINA RESULT:      -6.9     36.927     41.140
REMARK  Name = 
REMARK  3 active torsions:
REMARK  status: ('A' for Active; 'I' for Inactive)
REMARK    1  A    between atoms: C_2  and  O_4
REMARK    2  A    between atoms: O_4  and  C_5
REMARK    3  A    between atoms: C_26  and  C_27
REMARK                            x       y       z     vdW  Elec       q    Type
REMARK                         _______ _______ _______ _____ _____    ______ ____
ROOT
ATOM      5  C   UNL     1      25.571  44.162  16.873  0.00  0.00    +0.000 C 
ATOM      6  C   UNL     1      24.750  42.917  16.165  0.00  0.00    +0.000 C 
ATOM      7  C   UNL     1      25.774  41.867  16.603  0.00  0.00    +0.000 C 
ATOM      8  C   UNL     1      25.838  42.041  18.123  0.00  0.00    +0.000 C 
ATOM      9  C   UNL     1      26.933  42.696  18.702  0.00  0.00    +0.000 C 
ATOM     10  C   UNL     1      24.378  42.601  18.559  0.00  0.00    +0.000 C 
ATOM     11  C   UNL     1      24.779  42.716  20.141  0.00  0.00    +0.000 C 
ATOM     12  C   UNL     1      24.488  41.270  20.531  0.00  0.00    +0.000 C 
ATOM     13  C   UNL     1      25.680  40.515  20.084  0.00  0.00    +0.000 C 
ATOM     14  C   UNL     1      26.979  40.945  20.636  0.00  0.00    +0.000 C 
ATOM     15  C   UNL     1      25.699  40.455  18.461  0.00  0.00    +0.000 C 
ATOM     16  C   UNL     1      27.309  40.170  18.361  0.00  0.00    +0.000 C 
ATOM     17  C   UNL     1      27.475  38.767  18.882  0.00  0.00    +0.000 C 
ATOM     18  C   UNL     1      26.582  38.322  19.659  0.00  0.00    +0.000 C 
ATOM     19  C   UNL     1      26.742  37.003  20.554  0.00  0.00    +0.000 C 
ATOM     20  C   UNL     1      28.185  36.444  19.862  0.00  0.00    +0.000 C 
ATOM     21  C   UNL     1      27.694  35.788  18.495  0.00  0.00    +0.000 C 
ATOM     22  C   UNL     1      28.142  35.071  20.860  0.00  0.00    +0.000 C 
ATOM     23  C   UNL     1      29.371  34.386  20.054  0.00  0.00    +0.000 C 
ATOM     24  C   UNL     1      27.024  34.211  20.068  0.00  0.00    +0.000 C 
ATOM     25  C   UNL     1      25.692  34.822  20.291  0.00  0.00    +0.000 C 
ATOM     26  C   UNL     1      25.607  36.199  19.756  0.00  0.00    +0.000 C 
ATOM     30  C   UNL     1      24.446  36.889  20.503  0.00  0.00    +0.000 C 
ATOM     31  C   UNL     1      24.304  38.357  20.154  0.00  0.00    +0.000 C 
ATOM     32  C   UNL     1      25.550  39.085  20.438  0.00  0.00    +0.000 C 
ATOM     33  C   UNL     1      25.788  39.035  21.942  0.00  0.00    +0.000 C 
ATOM     34  C   UNL     1      24.654  44.160  18.223  0.00  0.00    +0.000 C 
ATOM     35  C   UNL     1      25.403  44.855  19.255  0.00  0.00    +0.000 C 
ATOM     36  C   UNL     1      23.282  44.619  17.922  0.00  0.00    +0.000 C 
ENDROOT
BRANCH  26  27
ATOM     27  C   UNL     1      25.292  36.438  18.418  0.00  0.00    +0.000 C 
ATOM     28  O   UNL     1      24.564  37.342  17.890  0.00  0.00    +0.000 OA
ATOM     29  O   UNL     1      24.811  35.260  17.783  0.00  0.00    +0.000 OA
ENDBRANCH  26  27
BRANCH   5   4
ATOM      4  O   UNL     1      24.720  45.217  16.138  0.00  0.00    +0.000 OA
BRANCH   4   2
ATOM      1  C   UNL     1      25.987  46.378  14.384  0.00  0.00    +0.000 C 
ATOM      2  C   UNL     1      25.477  46.337  15.785  0.00  0.00    +0.000 C 
ATOM      3  O   UNL     1      25.165  47.409  16.374  0.00  0.00    +0.000 OA
ENDBRANCH   4   2
ENDBRANCH   5   4
TORSDOF 3
ENDMDL
