MODEL 1
REMARK VINA RESULT:      -7.5      0.000      0.000
REMARK  Name = 
REMARK  3 active torsions:
REMARK  status: ('A' for Active; 'I' for Inactive)
REMARK    1  A    between atoms: C_2  and  O_4
REMARK    2  A    between atoms: O_4  and  C_5
REMARK    3  A    between atoms: C_26  and  C_27
REMARK                            x       y       z     vdW  Elec       q    Type
REMARK                         _______ _______ _______ _____ _____    ______ ____
ROOT
ATOM      5  C   UNL     1      32.023  54.231 -24.265  0.00  0.00    +0.000 C 
ATOM      6  C   UNL     1      32.067  52.765 -23.526  0.00  0.00    +0.000 C 
ATOM      7  C   UNL     1      31.798  52.695 -22.117  0.00  0.00    +0.000 C 
ATOM      8  C   UNL     1      30.563  53.450 -21.601  0.00  0.00    +0.000 C 
ATOM      9  C   UNL     1      31.040  54.511 -20.857  0.00  0.00    +0.000 C 
ATOM     10  C   UNL     1      29.867  53.603 -23.049  0.00  0.00    +0.000 C 
ATOM     11  C   UNL     1      28.605  54.536 -22.577  0.00  0.00    +0.000 C 
ATOM     12  C   UNL     1      27.697  53.380 -22.129  0.00  0.00    +0.000 C 
ATOM     13  C   UNL     1      28.229  53.225 -20.740  0.00  0.00    +0.000 C 
ATOM     14  C   UNL     1      28.458  54.582 -20.177  0.00  0.00    +0.000 C 
ATOM     15  C   UNL     1      29.624  52.387 -20.813  0.00  0.00    +0.000 C 
ATOM     16  C   UNL     1      30.087  52.902 -19.331  0.00  0.00    +0.000 C 
ATOM     17  C   UNL     1      28.997  52.824 -18.392  0.00  0.00    +0.000 C 
ATOM     18  C   UNL     1      27.736  52.835 -18.501  0.00  0.00    +0.000 C 
ATOM     19  C   UNL     1      26.672  52.162 -17.500  0.00  0.00    +0.000 C 
ATOM     20  C   UNL     1      27.282  53.061 -16.206  0.00  0.00    +0.000 C 
ATOM     21  C   UNL     1      28.682  52.326 -15.905  0.00  0.00    +0.000 C 
ATOM     22  C   UNL     1      26.546  52.302 -14.888  0.00  0.00    +0.000 C 
ATOM     23  C   UNL     1      25.039  52.774 -15.290  0.00  0.00    +0.000 C 
ATOM     24  C   UNL     1      26.321  50.812 -15.463  0.00  0.00    +0.000 C 
ATOM     25  C   UNL     1      27.613  50.296 -16.008  0.00  0.00    +0.000 C 
ATOM     26  C   UNL     1      27.381  50.724 -17.391  0.00  0.00    +0.000 C 
ATOM     30  C   UNL     1      28.245  50.404 -18.470  0.00  0.00    +0.000 C 
ATOM     31  C   UNL     1      27.860  50.928 -19.809  0.00  0.00    +0.000 C 
ATOM     32  C   UNL     1      27.373  52.338 -19.885  0.00  0.00    +0.000 C 
ATOM     33  C   UNL     1      25.928  52.360 -20.206  0.00  0.00    +0.000 C 
ATOM     34  C   UNL     1      30.699  54.879 -23.566  0.00  0.00    +0.000 C 
ATOM     35  C   UNL     1      29.790  55.456 -24.648  0.00  0.00    +0.000 C 
ATOM     36  C   UNL     1      30.951  55.991 -22.771  0.00  0.00    +0.000 C 
ENDROOT
BRANCH  26  27
ATOM     27  C   UNL     1      26.187  49.845 -17.738  0.00  0.00    +0.000 C 
ATOM     28  O   UNL     1      25.004  50.132 -17.871  0.00  0.00    +0.000 OA
ATOM     29  O   UNL     1      26.515  48.482 -17.724  0.00  0.00    +0.000 OA
ENDBRANCH  26  27
BRANCH   5   4
ATOM      4  O   UNL     1      31.208  53.648 -25.439  0.00  0.00    +0.000 OA
BRANCH   4   2
ATOM      1  C   UNL     1      32.765  54.307 -27.202  0.00  0.00    +0.000 C 
ATOM      2  C   UNL     1      31.928  53.417 -26.613  0.00  0.00    +0.000 C 
ATOM      3  O   UNL     1      31.831  52.253 -27.107  0.00  0.00    +0.000 OA
ENDBRANCH   4   2
ENDBRANCH   5   4
TORSDOF 3
ENDMDL
MODEL 2
REMARK VINA RESULT:      -7.4     46.758     52.691
REMARK  Name = 
REMARK  3 active torsions:
REMARK  status: ('A' for Active; 'I' for Inactive)
REMARK    1  A    between atoms: C_2  and  O_4
REMARK    2  A    between atoms: O_4  and  C_5
REMARK    3  A    between atoms: C_26  and  C_27
REMARK                            x       y       z     vdW  Elec       q    Type
REMARK                         _______ _______ _______ _____ _____    ______ ____
ROOT
ATOM      5  C   UNL     1       0.627  56.954  29.053  0.00  0.00    +0.000 C 
ATOM      6  C   UNL     1       1.522  57.934  28.087  0.00  0.00    +0.000 C 
ATOM      7  C   UNL     1       2.757  57.433  27.550  0.00  0.00    +0.000 C 
ATOM      8  C   UNL     1       2.726  56.036  26.911  0.00  0.00    +0.000 C 
ATOM      9  C   UNL     1       3.443  55.209  27.754  0.00  0.00    +0.000 C 
ATOM     10  C   UNL     1       1.123  55.984  26.744  0.00  0.00    +0.000 C 
ATOM     11  C   UNL     1       1.019  54.442  26.195  0.00  0.00    +0.000 C 
ATOM     12  C   UNL     1       1.284  54.770  24.717  0.00  0.00    +0.000 C 
ATOM     13  C   UNL     1       2.779  54.756  24.767  0.00  0.00    +0.000 C 
ATOM     14  C   UNL     1       3.204  53.617  25.622  0.00  0.00    +0.000 C 
ATOM     15  C   UNL     1       3.286  56.171  25.394  0.00  0.00    +0.000 C 
ATOM     16  C   UNL     1       4.758  55.556  25.760  0.00  0.00    +0.000 C 
ATOM     17  C   UNL     1       5.279  54.777  24.666  0.00  0.00    +0.000 C 
ATOM     18  C   UNL     1       4.754  54.151  23.700  0.00  0.00    +0.000 C 
ATOM     19  C   UNL     1       5.420  53.844  22.268  0.00  0.00    +0.000 C 
ATOM     20  C   UNL     1       6.715  53.053  23.011  0.00  0.00    +0.000 C 
ATOM     21  C   UNL     1       7.559  54.276  23.626  0.00  0.00    +0.000 C 
ATOM     22  C   UNL     1       7.798  52.891  21.723  0.00  0.00    +0.000 C 
ATOM     23  C   UNL     1       6.857  51.853  20.890  0.00  0.00    +0.000 C 
ATOM     24  C   UNL     1       7.380  54.143  20.796  0.00  0.00    +0.000 C 
ATOM     25  C   UNL     1       7.370  55.386  21.625  0.00  0.00    +0.000 C 
ATOM     26  C   UNL     1       5.946  55.333  21.969  0.00  0.00    +0.000 C 
ATOM     30  C   UNL     1       5.269  56.356  22.682  0.00  0.00    +0.000 C 
ATOM     31  C   UNL     1       3.823  56.135  22.953  0.00  0.00    +0.000 C 
ATOM     32  C   UNL     1       3.405  54.773  23.404  0.00  0.00    +0.000 C 
ATOM     33  C   UNL     1       2.620  54.104  22.342  0.00  0.00    +0.000 C 
ATOM     34  C   UNL     1       0.752  55.542  28.245  0.00  0.00    +0.000 C 
ATOM     35  C   UNL     1      -0.637  54.931  28.082  0.00  0.00    +0.000 C 
ATOM     36  C   UNL     1       1.433  54.542  28.929  0.00  0.00    +0.000 C 
ENDROOT
BRANCH  26  27
ATOM     27  C   UNL     1       5.337  55.526  20.587  0.00  0.00    +0.000 C 
ATOM     28  O   UNL     1       4.818  54.716  19.830  0.00  0.00    +0.000 OA
ATOM     29  O   UNL     1       5.587  56.808  20.076  0.00  0.00    +0.000 OA
ENDBRANCH  26  27
BRANCH   5   4
ATOM      4  O   UNL     1      -0.666  57.350  28.309  0.00  0.00    +0.000 OA
BRANCH   4   2
ATOM      1  C   UNL     1      -1.960  58.318  30.140  0.00  0.00    +0.000 C 
ATOM      2  C   UNL     1      -1.410  58.371  28.902  0.00  0.00    +0.000 C 
ATOM      3  O   UNL     1      -1.504  59.450  28.240  0.00  0.00    +0.000 OA
ENDBRANCH   4   2
ENDBRANCH   5   4
TORSDOF 3
ENDMDL
MODEL 3
REMARK VINA RESULT:      -7.3     12.172     14.070
REMARK  Name = 
REMARK  3 active torsions:
REMARK  status: ('A' for Active; 'I' for Inactive)
REMARK    1  A    between atoms: C_2  and  O_4
REMARK    2  A    between atoms: O_4  and  C_5
REMARK    3  A    between atoms: C_26  and  C_27
REMARK                            x       y       z     vdW  Elec       q    Type
REMARK                         _______ _______ _______ _____ _____    ______ ____
ROOT
ATOM      5  C   UNL     1      34.124  59.526  -9.966  0.00  0.00    +0.000 C 
ATOM      6  C   UNL     1      33.224  58.208 -10.355  0.00  0.00    +0.000 C 
ATOM      7  C   UNL     1      32.573  57.482  -9.302  0.00  0.00    +0.000 C 
ATOM      8  C   UNL     1      31.789  58.303  -8.266  0.00  0.00    +0.000 C 
ATOM      9  C   UNL     1      32.498  58.215  -7.085  0.00  0.00    +0.000 C 
ATOM     10  C   UNL     1      31.700  59.636  -9.170  0.00  0.00    +0.000 C 
ATOM     11  C   UNL     1      30.994  60.603  -8.049  0.00  0.00    +0.000 C 
ATOM     12  C   UNL     1      29.548  60.167  -8.336  0.00  0.00    +0.000 C 
ATOM     13  C   UNL     1      29.519  58.957  -7.456  0.00  0.00    +0.000 C 
ATOM     14  C   UNL     1      30.222  59.289  -6.189  0.00  0.00    +0.000 C 
ATOM     15  C   UNL     1      30.268  57.737  -8.232  0.00  0.00    +0.000 C 
ATOM     16  C   UNL     1      30.488  56.902  -6.842  0.00  0.00    +0.000 C 
ATOM     17  C   UNL     1      29.290  56.906  -6.041  0.00  0.00    +0.000 C 
ATOM     18  C   UNL     1      28.291  57.677  -5.953  0.00  0.00    +0.000 C 
ATOM     19  C   UNL     1      26.802  57.282  -5.490  0.00  0.00    +0.000 C 
ATOM     20  C   UNL     1      27.386  56.701  -4.015  0.00  0.00    +0.000 C 
ATOM     21  C   UNL     1      28.086  55.317  -4.443  0.00  0.00    +0.000 C 
ATOM     22  C   UNL     1      26.034  55.886  -3.412  0.00  0.00    +0.000 C 
ATOM     23  C   UNL     1      25.144  57.237  -3.215  0.00  0.00    +0.000 C 
ATOM     24  C   UNL     1      25.271  55.482  -4.774  0.00  0.00    +0.000 C 
ATOM     25  C   UNL     1      26.229  54.787  -5.685  0.00  0.00    +0.000 C 
ATOM     26  C   UNL     1      26.639  55.985  -6.424  0.00  0.00    +0.000 C 
ATOM     30  C   UNL     1      27.493  55.958  -7.557  0.00  0.00    +0.000 C 
ATOM     31  C   UNL     1      27.813  57.271  -8.181  0.00  0.00    +0.000 C 
ATOM     32  C   UNL     1      28.135  58.410  -7.269  0.00  0.00    +0.000 C 
ATOM     33  C   UNL     1      27.049  59.415  -7.308  0.00  0.00    +0.000 C 
ATOM     34  C   UNL     1      33.162  60.225  -8.849  0.00  0.00    +0.000 C 
ATOM     35  C   UNL     1      33.006  61.708  -9.177  0.00  0.00    +0.000 C 
ATOM     36  C   UNL     1      33.698  60.263  -7.567  0.00  0.00    +0.000 C 
ENDROOT
BRANCH  26  27
ATOM     27  C   UNL     1      25.319  56.341  -7.096  0.00  0.00    +0.000 C 
ATOM     28  O   UNL     1      24.530  57.247  -6.860  0.00  0.00    +0.000 OA
ATOM     29  O   UNL     1      24.905  55.353  -8.000  0.00  0.00    +0.000 OA
ENDBRANCH  26  27
BRANCH   5   4
ATOM      4  O   UNL     1      33.495  60.335 -11.120  0.00  0.00    +0.000 OA
BRANCH   4   2
ATOM      1  C   UNL     1      35.432  60.303 -12.607  0.00  0.00    +0.000 C 
ATOM      2  C   UNL     1      34.104  60.174 -12.366  0.00  0.00    +0.000 C 
ATOM      3  O   UNL     1      33.346  59.809 -13.315  0.00  0.00    +0.000 OA
ENDBRANCH   4   2
ENDBRANCH   5   4
TORSDOF 3
ENDMDL
MODEL 4
REMARK VINA RESULT:      -7.2     20.087     23.501
REMARK  Name = 
REMARK  3 active torsions:
REMARK  status: ('A' for Active; 'I' for Inactive)
REMARK    1  A    between atoms: C_2  and  O_4
REMARK    2  A    between atoms: O_4  and  C_5
REMARK    3  A    between atoms: C_26  and  C_27
REMARK                            x       y       z     vdW  Elec       q    Type
REMARK                         _______ _______ _______ _____ _____    ______ ____
ROOT
ATOM      5  C   UNL     1      24.504  54.904   3.742  0.00  0.00    +0.000 C 
ATOM      6  C   UNL     1      24.787  54.604   2.152  0.00  0.00    +0.000 C 
ATOM      7  C   UNL     1      25.978  53.890   1.786  0.00  0.00    +0.000 C 
ATOM      8  C   UNL     1      26.298  52.611   2.575  0.00  0.00    +0.000 C 
ATOM      9  C   UNL     1      27.414  52.896   3.339  0.00  0.00    +0.000 C 
ATOM     10  C   UNL     1      24.813  52.433   3.179  0.00  0.00    +0.000 C 
ATOM     11  C   UNL     1      25.134  51.154   4.153  0.00  0.00    +0.000 C 
ATOM     12  C   UNL     1      24.958  50.072   3.077  0.00  0.00    +0.000 C 
ATOM     13  C   UNL     1      26.342  50.115   2.511  0.00  0.00    +0.000 C 
ATOM     14  C   UNL     1      27.300  50.244   3.640  0.00  0.00    +0.000 C 
ATOM     15  C   UNL     1      26.450  51.395   1.511  0.00  0.00    +0.000 C 
ATOM     16  C   UNL     1      28.085  51.390   1.576  0.00  0.00    +0.000 C 
ATOM     17  C   UNL     1      28.603  50.053   1.443  0.00  0.00    +0.000 C 
ATOM     18  C   UNL     1      28.138  48.899   1.673  0.00  0.00    +0.000 C 
ATOM     19  C   UNL     1      28.556  47.524   0.951  0.00  0.00    +0.000 C 
ATOM     20  C   UNL     1      30.169  47.745   1.406  0.00  0.00    +0.000 C 
ATOM     21  C   UNL     1      30.649  48.917   0.414  0.00  0.00    +0.000 C 
ATOM     22  C   UNL     1      30.949  46.572   0.474  0.00  0.00    +0.000 C 
ATOM     23  C   UNL     1      30.271  45.312   1.255  0.00  0.00    +0.000 C 
ATOM     24  C   UNL     1      29.944  46.440  -0.781  0.00  0.00    +0.000 C 
ATOM     25  C   UNL     1      29.680  47.799  -1.342  0.00  0.00    +0.000 C 
ATOM     26  C   UNL     1      28.465  48.057  -0.563  0.00  0.00    +0.000 C 
ATOM     30  C   UNL     1      27.641  49.198  -0.742  0.00  0.00    +0.000 C 
ATOM     31  C   UNL     1      26.448  49.305   0.142  0.00  0.00    +0.000 C 
ATOM     32  C   UNL     1      26.627  48.968   1.587  0.00  0.00    +0.000 C 
ATOM     33  C   UNL     1      25.918  47.709   1.908  0.00  0.00    +0.000 C 
ATOM     34  C   UNL     1      24.936  53.474   4.398  0.00  0.00    +0.000 C 
ATOM     35  C   UNL     1      23.840  53.007   5.351  0.00  0.00    +0.000 C 
ATOM     36  C   UNL     1      26.046  53.533   5.233  0.00  0.00    +0.000 C 
ENDROOT
BRANCH  26  27
ATOM     27  C   UNL     1      27.554  46.980  -1.138  0.00  0.00    +0.000 C 
ATOM     28  O   UNL     1      27.202  45.906  -0.667  0.00  0.00    +0.000 OA
ATOM     29  O   UNL     1      27.234  47.224  -2.481  0.00  0.00    +0.000 OA
ENDBRANCH  26  27
BRANCH   5   4
ATOM      4  O   UNL     1      23.030  54.473   3.592  0.00  0.00    +0.000 OA
BRANCH   4   2
ATOM      1  C   UNL     1      21.188  55.355   2.252  0.00  0.00    +0.000 C 
ATOM      2  C   UNL     1      22.147  55.482   3.202  0.00  0.00    +0.000 C 
ATOM      3  O   UNL     1      22.220  56.569   3.852  0.00  0.00    +0.000 OA
ENDBRANCH   4   2
ENDBRANCH   5   4
TORSDOF 3
ENDMDL
MODEL 5
REMARK VINA RESULT:      -7.1     36.195     41.396
REMARK  Name = 
REMARK  3 active torsions:
REMARK  status: ('A' for Active; 'I' for Inactive)
REMARK    1  A    between atoms: C_2  and  O_4
REMARK    2  A    between atoms: O_4  and  C_5
REMARK    3  A    between atoms: C_26  and  C_27
REMARK                            x       y       z     vdW  Elec       q    Type
REMARK                         _______ _______ _______ _____ _____    ______ ____
ROOT
ATOM      5  C   UNL     1      26.561  46.414  17.568  0.00  0.00    +0.000 C 
ATOM      6  C   UNL     1      27.678  45.515  18.369  0.00  0.00    +0.000 C 
ATOM      7  C   UNL     1      27.232  44.609  19.390  0.00  0.00    +0.000 C 
ATOM      8  C   UNL     1      26.045  43.696  19.046  0.00  0.00    +0.000 C 
ATOM      9  C   UNL     1      24.980  44.141  19.804  0.00  0.00    +0.000 C 
ATOM     10  C   UNL     1      26.162  43.894  17.449  0.00  0.00    +0.000 C 
ATOM     11  C   UNL     1      24.820  43.050  17.033  0.00  0.00    +0.000 C 
ATOM     12  C   UNL     1      25.484  41.665  17.031  0.00  0.00    +0.000 C 
ATOM     13  C   UNL     1      25.341  41.364  18.490  0.00  0.00    +0.000 C 
ATOM     14  C   UNL     1      23.995  41.818  18.926  0.00  0.00    +0.000 C 
ATOM     15  C   UNL     1      26.510  42.161  19.297  0.00  0.00    +0.000 C 
ATOM     16  C   UNL     1      25.710  42.030  20.718  0.00  0.00    +0.000 C 
ATOM     17  C   UNL     1      25.190  40.698  20.897  0.00  0.00    +0.000 C 
ATOM     18  C   UNL     1      24.868  39.763  20.107  0.00  0.00    +0.000 C 
ATOM     19  C   UNL     1      24.877  38.185  20.420  0.00  0.00    +0.000 C 
ATOM     20  C   UNL     1      23.826  38.411  21.724  0.00  0.00    +0.000 C 
ATOM     21  C   UNL     1      24.786  39.076  22.830  0.00  0.00    +0.000 C 
ATOM     22  C   UNL     1      23.906  36.907  22.490  0.00  0.00    +0.000 C 
ATOM     23  C   UNL     1      23.187  36.100  21.270  0.00  0.00    +0.000 C 
ATOM     24  C   UNL     1      25.379  36.408  22.060  0.00  0.00    +0.000 C 
ATOM     25  C   UNL     1      26.372  37.476  22.384  0.00  0.00    +0.000 C 
ATOM     26  C   UNL     1      26.347  38.118  21.066  0.00  0.00    +0.000 C 
ATOM     30  C   UNL     1      27.210  39.180  20.690  0.00  0.00    +0.000 C 
ATOM     31  C   UNL     1      27.042  39.720  19.314  0.00  0.00    +0.000 C 
ATOM     32  C   UNL     1      25.648  39.934  18.821  0.00  0.00    +0.000 C 
ATOM     33  C   UNL     1      25.330  38.959  17.754  0.00  0.00    +0.000 C 
ATOM     34  C   UNL     1      25.390  45.301  17.338  0.00  0.00    +0.000 C 
ATOM     35  C   UNL     1      24.951  45.328  15.877  0.00  0.00    +0.000 C 
ATOM     36  C   UNL     1      24.201  45.566  18.007  0.00  0.00    +0.000 C 
ENDROOT
BRANCH  26  27
ATOM     27  C   UNL     1      26.927  36.994  20.218  0.00  0.00    +0.000 C 
ATOM     28  O   UNL     1      26.382  36.244  19.418  0.00  0.00    +0.000 OA
ATOM     29  O   UNL     1      28.252  36.698  20.570  0.00  0.00    +0.000 OA
ENDBRANCH  26  27
BRANCH   5   4
ATOM      4  O   UNL     1      27.231  46.096  16.215  0.00  0.00    +0.000 OA
BRANCH   4   2
ATOM      1  C   UNL     1      27.211  48.284  15.129  0.00  0.00    +0.000 C 
ATOM      2  C   UNL     1      27.849  47.177  15.583  0.00  0.00    +0.000 C 
ATOM      3  O   UNL     1      29.114  47.129  15.505  0.00  0.00    +0.000 OA
ENDBRANCH   4   2
ENDBRANCH   5   4
TORSDOF 3
ENDMDL
MODEL 6
REMARK VINA RESULT:      -6.9     22.654     25.864
REMARK  Name = 
REMARK  3 active torsions:
REMARK  status: ('A' for Active; 'I' for Inactive)
REMARK    1  A    between atoms: C_2  and  O_4
REMARK    2  A    between atoms: O_4  and  C_5
REMARK    3  A    between atoms: C_26  and  C_27
REMARK                            x       y       z     vdW  Elec       q    Type
REMARK                         _______ _______ _______ _____ _____    ______ ____
ROOT
ATOM      5  C   UNL     1       6.519  46.985 -14.484  0.00  0.00    +0.000 C 
ATOM      6  C   UNL     1       5.282  46.198 -15.223  0.00  0.00    +0.000 C 
ATOM      7  C   UNL     1       5.586  45.269 -16.276  0.00  0.00    +0.000 C 
ATOM      8  C   UNL     1       6.704  44.250 -16.008  0.00  0.00    +0.000 C 
ATOM      9  C   UNL     1       7.759  44.609 -16.824  0.00  0.00    +0.000 C 
ATOM     10  C   UNL     1       6.698  44.439 -14.406  0.00  0.00    +0.000 C 
ATOM     11  C   UNL     1       7.982  43.475 -14.076  0.00  0.00    +0.000 C 
ATOM     12  C   UNL     1       7.198  42.153 -14.044  0.00  0.00    +0.000 C 
ATOM     13  C   UNL     1       7.229  41.859 -15.511  0.00  0.00    +0.000 C 
ATOM     14  C   UNL     1       8.583  42.198 -16.023  0.00  0.00    +0.000 C 
ATOM     15  C   UNL     1       6.091  42.766 -16.242  0.00  0.00    +0.000 C 
ATOM     16  C   UNL     1       6.793  42.582 -17.708  0.00  0.00    +0.000 C 
ATOM     17  C   UNL     1       7.181  41.212 -17.927  0.00  0.00    +0.000 C 
ATOM     18  C   UNL     1       7.464  40.242 -17.165  0.00  0.00    +0.000 C 
ATOM     19  C   UNL     1       7.296  38.676 -17.488  0.00  0.00    +0.000 C 
ATOM     20  C   UNL     1       8.286  38.823 -18.850  0.00  0.00    +0.000 C 
ATOM     21  C   UNL     1       7.327  39.584 -19.892  0.00  0.00    +0.000 C 
ATOM     22  C   UNL     1       8.029  37.342 -19.620  0.00  0.00    +0.000 C 
ATOM     23  C   UNL     1       8.743  36.460 -18.450  0.00  0.00    +0.000 C 
ATOM     24  C   UNL     1       6.545  36.970 -19.108  0.00  0.00    +0.000 C 
ATOM     25  C   UNL     1       5.634  38.125 -19.366  0.00  0.00    +0.000 C 
ATOM     26  C   UNL     1       5.791  38.746 -18.047  0.00  0.00    +0.000 C 
ATOM     30  C   UNL     1       5.050  39.875 -17.614  0.00  0.00    +0.000 C 
ATOM     31  C   UNL     1       5.344  40.381 -16.245  0.00  0.00    +0.000 C 
ATOM     32  C   UNL     1       6.778  40.466 -15.834  0.00  0.00    +0.000 C 
ATOM     33  C   UNL     1       7.069  39.453 -14.794  0.00  0.00    +0.000 C 
ATOM     34  C   UNL     1       7.597  45.770 -14.330  0.00  0.00    +0.000 C 
ATOM     35  C   UNL     1       8.121  45.740 -12.897  0.00  0.00    +0.000 C 
ATOM     36  C   UNL     1       8.764  45.937 -15.066  0.00  0.00    +0.000 C 
ENDROOT
BRANCH  26  27
ATOM     27  C   UNL     1       5.164  37.667 -17.174  0.00  0.00    +0.000 C 
ATOM     28  O   UNL     1       5.685  36.865 -16.410  0.00  0.00    +0.000 OA
ATOM     29  O   UNL     1       3.802  37.490 -17.454  0.00  0.00    +0.000 OA
ENDBRANCH  26  27
BRANCH   5   4
ATOM      4  O   UNL     1       5.903  46.711 -13.095  0.00  0.00    +0.000 OA
BRANCH   4   2
ATOM      1  C   UNL     1       6.068  48.977 -12.200  0.00  0.00    +0.000 C 
ATOM      2  C   UNL     1       5.387  47.829 -12.437  0.00  0.00    +0.000 C 
ATOM      3  O   UNL     1       4.163  47.769 -12.109  0.00  0.00    +0.000 OA
ENDBRANCH   4   2
ENDBRANCH   5   4
TORSDOF 3
ENDMDL
MODEL 7
REMARK VINA RESULT:      -6.8     34.989     40.917
REMARK  Name = 
REMARK  3 active torsions:
REMARK  status: ('A' for Active; 'I' for Inactive)
REMARK    1  A    between atoms: C_2  and  O_4
REMARK    2  A    between atoms: O_4  and  C_5
REMARK    3  A    between atoms: C_26  and  C_27
REMARK                            x       y       z     vdW  Elec       q    Type
REMARK                         _______ _______ _______ _____ _____    ______ ____
ROOT
ATOM      5  C   UNL     1       6.644  59.087   7.112  0.00  0.00    +0.000 C 
ATOM      6  C   UNL     1       6.337  59.806   8.556  0.00  0.00    +0.000 C 
ATOM      7  C   UNL     1       4.978  60.130   8.890  0.00  0.00    +0.000 C 
ATOM      8  C   UNL     1       3.923  59.035   8.671  0.00  0.00    +0.000 C 
ATOM      9  C   UNL     1       3.141  59.457   7.613  0.00  0.00    +0.000 C 
ATOM     10  C   UNL     1       4.983  57.823   8.583  0.00  0.00    +0.000 C 
ATOM     11  C   UNL     1       3.916  56.638   8.202  0.00  0.00    +0.000 C 
ATOM     12  C   UNL     1       3.491  56.322   9.645  0.00  0.00    +0.000 C 
ATOM     13  C   UNL     1       2.431  57.368   9.782  0.00  0.00    +0.000 C 
ATOM     14  C   UNL     1       1.663  57.420   8.511  0.00  0.00    +0.000 C 
ATOM     15  C   UNL     1       3.154  58.797  10.080  0.00  0.00    +0.000 C 
ATOM     16  C   UNL     1       1.825  59.638   9.628  0.00  0.00    +0.000 C 
ATOM     17  C   UNL     1       0.631  59.058  10.190  0.00  0.00    +0.000 C 
ATOM     18  C   UNL     1       0.319  57.900  10.595  0.00  0.00    +0.000 C 
ATOM     19  C   UNL     1      -0.780  57.529  11.709  0.00  0.00    +0.000 C 
ATOM     20  C   UNL     1      -1.982  58.323  10.827  0.00  0.00    +0.000 C 
ATOM     21  C   UNL     1      -1.624  59.872  11.073  0.00  0.00    +0.000 C 
ATOM     22  C   UNL     1      -3.243  58.386  11.950  0.00  0.00    +0.000 C 
ATOM     23  C   UNL     1      -3.479  56.774  11.972  0.00  0.00    +0.000 C 
ATOM     24  C   UNL     1      -2.430  58.369  13.343  0.00  0.00    +0.000 C 
ATOM     25  C   UNL     1      -1.387  59.438  13.315  0.00  0.00    +0.000 C 
ATOM     26  C   UNL     1      -0.302  58.585  12.822  0.00  0.00    +0.000 C 
ATOM     30  C   UNL     1       1.043  59.018  12.691  0.00  0.00    +0.000 C 
ATOM     31  C   UNL     1       2.016  58.022  12.165  0.00  0.00    +0.000 C 
ATOM     32  C   UNL     1       1.586  57.181  11.007  0.00  0.00    +0.000 C 
ATOM     33  C   UNL     1       1.404  55.777  11.438  0.00  0.00    +0.000 C 
ATOM     34  C   UNL     1       5.418  58.012   7.046  0.00  0.00    +0.000 C 
ATOM     35  C   UNL     1       5.973  56.638   6.682  0.00  0.00    +0.000 C 
ATOM     36  C   UNL     1       4.504  58.240   6.024  0.00  0.00    +0.000 C 
ENDROOT
BRANCH  26  27
ATOM     27  C   UNL     1      -0.159  57.635  14.004  0.00  0.00    +0.000 C 
ATOM     28  O   UNL     1      -0.448  56.450  14.106  0.00  0.00    +0.000 OA
ATOM     29  O   UNL     1       0.200  58.308  15.180  0.00  0.00    +0.000 OA
ENDBRANCH  26  27
BRANCH   5   4
ATOM      4  O   UNL     1       7.594  58.073   7.785  0.00  0.00    +0.000 OA
BRANCH   4   2
ATOM      1  C   UNL     1       9.591  59.349   7.194  0.00  0.00    +0.000 C 
ATOM      2  C   UNL     1       8.892  58.531   8.019  0.00  0.00    +0.000 C 
ATOM      3  O   UNL     1       9.408  58.201   9.130  0.00  0.00    +0.000 OA
ENDBRANCH   4   2
ENDBRANCH   5   4
TORSDOF 3
ENDMDL
MODEL 8
REMARK VINA RESULT:      -6.8     26.305     31.449
REMARK  Name = 
REMARK  3 active torsions:
REMARK  status: ('A' for Active; 'I' for Inactive)
REMARK    1  A    between atoms: C_2  and  O_4
REMARK    2  A    between atoms: O_4  and  C_5
REMARK    3  A    between atoms: C_26  and  C_27
REMARK                            x       y       z     vdW  Elec       q    Type
REMARK                         _______ _______ _______ _____ _____    ______ ____
ROOT
ATOM      5  C   UNL     1       5.340  48.626   3.442  0.00  0.00    +0.000 C 
ATOM      6  C   UNL     1       6.628  49.583   3.788  0.00  0.00    +0.000 C 
ATOM      7  C   UNL     1       7.440  50.065   2.706  0.00  0.00    +0.000 C 
ATOM      8  C   UNL     1       6.708  50.672   1.498  0.00  0.00    +0.000 C 
ATOM      9  C   UNL     1       6.884  49.785   0.453  0.00  0.00    +0.000 C 
ATOM     10  C   UNL     1       5.308  50.893   2.268  0.00  0.00    +0.000 C 
ATOM     11  C   UNL     1       4.438  51.408   0.978  0.00  0.00    +0.000 C 
ATOM     12  C   UNL     1       4.859  52.884   1.067  0.00  0.00    +0.000 C 
ATOM     13  C   UNL     1       6.134  52.782   0.292  0.00  0.00    +0.000 C 
ATOM     14  C   UNL     1       5.899  51.886  -0.871  0.00  0.00    +0.000 C 
ATOM     15  C   UNL     1       7.285  52.171   1.270  0.00  0.00    +0.000 C 
ATOM     16  C   UNL     1       8.225  51.740   0.002  0.00  0.00    +0.000 C 
ATOM     17  C   UNL     1       8.292  52.797  -0.975  0.00  0.00    +0.000 C 
ATOM     18  C   UNL     1       7.537  53.766  -1.280  0.00  0.00    +0.000 C 
ATOM     19  C   UNL     1       7.977  55.165  -1.939  0.00  0.00    +0.000 C 
ATOM     20  C   UNL     1       8.669  54.360  -3.253  0.00  0.00    +0.000 C 
ATOM     21  C   UNL     1      10.010  53.745  -2.613  0.00  0.00    +0.000 C 
ATOM     22  C   UNL     1       9.538  55.605  -3.995  0.00  0.00    +0.000 C 
ATOM     23  C   UNL     1       8.213  56.445  -4.435  0.00  0.00    +0.000 C 
ATOM     24  C   UNL     1       9.838  56.576  -2.743  0.00  0.00    +0.000 C 
ATOM     25  C   UNL     1      10.453  55.777  -1.640  0.00  0.00    +0.000 C 
ATOM     26  C   UNL     1       9.198  55.481  -0.942  0.00  0.00    +0.000 C 
ATOM     30  C   UNL     1       9.129  54.816   0.310  0.00  0.00    +0.000 C 
ATOM     31  C   UNL     1       7.769  54.590   0.871  0.00  0.00    +0.000 C 
ATOM     32  C   UNL     1       6.704  54.122  -0.067  0.00  0.00    +0.000 C 
ATOM     33  C   UNL     1       5.706  55.195  -0.279  0.00  0.00    +0.000 C 
ATOM     34  C   UNL     1       4.737  49.396   2.136  0.00  0.00    +0.000 C 
ATOM     35  C   UNL     1       3.234  49.592   2.317  0.00  0.00    +0.000 C 
ATOM     36  C   UNL     1       4.796  48.665   0.955  0.00  0.00    +0.000 C 
ENDROOT
BRANCH  26  27
ATOM     27  C   UNL     1       8.798  56.888  -0.517  0.00  0.00    +0.000 C 
ATOM     28  O   UNL     1       7.908  57.618  -0.934  0.00  0.00    +0.000 OA
ATOM     29  O   UNL     1       9.727  57.454   0.368  0.00  0.00    +0.000 OA
ENDBRANCH  26  27
BRANCH   5   4
ATOM      4  O   UNL     1       4.446  49.424   4.416  0.00  0.00    +0.000 OA
BRANCH   4   2
ATOM      1  C   UNL     1       4.711  47.616   6.036  0.00  0.00    +0.000 C 
ATOM      2  C   UNL     1       4.249  48.835   5.666  0.00  0.00    +0.000 C 
ATOM      3  O   UNL     1       3.649  49.546   6.529  0.00  0.00    +0.000 OA
ENDBRANCH   4   2
ENDBRANCH   5   4
TORSDOF 3
ENDMDL
MODEL 9
REMARK VINA RESULT:      -6.7     39.906     42.210
REMARK  Name = 
REMARK  3 active torsions:
REMARK  status: ('A' for Active; 'I' for Inactive)
REMARK    1  A    between atoms: C_2  and  O_4
REMARK    2  A    between atoms: O_4  and  C_5
REMARK    3  A    between atoms: C_26  and  C_27
REMARK                            x       y       z     vdW  Elec       q    Type
REMARK                         _______ _______ _______ _____ _____    ______ ____
ROOT
ATOM      5  C   UNL     1      25.289  33.514  17.709  0.00  0.00    +0.000 C 
ATOM      6  C   UNL     1      24.227  34.674  17.238  0.00  0.00    +0.000 C 
ATOM      7  C   UNL     1      23.950  35.761  18.134  0.00  0.00    +0.000 C 
ATOM      8  C   UNL     1      25.156  36.457  18.784  0.00  0.00    +0.000 C 
ATOM      9  C   UNL     1      25.122  36.122  20.123  0.00  0.00    +0.000 C 
ATOM     10  C   UNL     1      26.241  35.883  17.737  0.00  0.00    +0.000 C 
ATOM     11  C   UNL     1      27.579  36.481  18.472  0.00  0.00    +0.000 C 
ATOM     12  C   UNL     1      27.518  37.875  17.829  0.00  0.00    +0.000 C 
ATOM     13  C   UNL     1      26.578  38.511  18.804  0.00  0.00    +0.000 C 
ATOM     14  C   UNL     1      26.955  38.065  20.171  0.00  0.00    +0.000 C 
ATOM     15  C   UNL     1      25.062  38.040  18.439  0.00  0.00    +0.000 C 
ATOM     16  C   UNL     1      24.508  38.448  19.924  0.00  0.00    +0.000 C 
ATOM     17  C   UNL     1      25.016  39.733  20.330  0.00  0.00    +0.000 C 
ATOM     18  C   UNL     1      26.038  40.415  20.025  0.00  0.00    +0.000 C 
ATOM     19  C   UNL     1      26.184  42.015  20.074  0.00  0.00    +0.000 C 
ATOM     20  C   UNL     1      25.783  42.028  21.716  0.00  0.00    +0.000 C 
ATOM     21  C   UNL     1      24.201  41.740  21.686  0.00  0.00    +0.000 C 
ATOM     22  C   UNL     1      25.527  43.676  21.990  0.00  0.00    +0.000 C 
ATOM     23  C   UNL     1      27.084  44.093  21.748  0.00  0.00    +0.000 C 
ATOM     24  C   UNL     1      25.079  44.177  20.525  0.00  0.00    +0.000 C 
ATOM     25  C   UNL     1      23.968  43.311  20.028  0.00  0.00    +0.000 C 
ATOM     26  C   UNL     1      24.820  42.365  19.301  0.00  0.00    +0.000 C 
ATOM     30  C   UNL     1      24.318  41.321  18.481  0.00  0.00    +0.000 C 
ATOM     31  C   UNL     1      25.326  40.447  17.822  0.00  0.00    +0.000 C 
ATOM     32  C   UNL     1      26.493  40.000  18.641  0.00  0.00    +0.000 C 
ATOM     33  C   UNL     1      27.732  40.652  18.161  0.00  0.00    +0.000 C 
ATOM     34  C   UNL     1      26.449  34.432  18.398  0.00  0.00    +0.000 C 
ATOM     35  C   UNL     1      27.812  34.008  17.859  0.00  0.00    +0.000 C 
ATOM     36  C   UNL     1      26.601  34.238  19.767  0.00  0.00    +0.000 C 
ENDROOT
BRANCH  26  27
ATOM     27  C   UNL     1      25.384  43.292  18.232  0.00  0.00    +0.000 C 
ATOM     28  O   UNL     1      26.502  43.777  18.116  0.00  0.00    +0.000 OA
ATOM     29  O   UNL     1      24.387  43.770  17.370  0.00  0.00    +0.000 OA
ENDBRANCH  26  27
BRANCH   5   4
ATOM      4  O   UNL     1      25.982  33.545  16.330  0.00  0.00    +0.000 OA
BRANCH   4   2
ATOM      1  C   UNL     1      25.330  33.186  14.004  0.00  0.00    +0.000 C 
ATOM      2  C   UNL     1      25.330  32.841  15.315  0.00  0.00    +0.000 C 
ATOM      3  O   UNL     1      24.762  31.761  15.661  0.00  0.00    +0.000 OA
ENDBRANCH   4   2
ENDBRANCH   5   4
TORSDOF 3
ENDMDL
MODEL 10
REMARK VINA RESULT:      -6.7     38.515     43.111
REMARK  Name = 
REMARK  3 active torsions:
REMARK  status: ('A' for Active; 'I' for Inactive)
REMARK    1  A    between atoms: C_2  and  O_4
REMARK    2  A    between atoms: O_4  and  C_5
REMARK    3  A    between atoms: C_26  and  C_27
REMARK                            x       y       z     vdW  Elec       q    Type
REMARK                         _______ _______ _______ _____ _____    ______ ____
ROOT
ATOM      5  C   UNL     1      24.756  36.151  22.848  0.00  0.00    +0.000 C 
ATOM      6  C   UNL     1      23.610  37.313  22.665  0.00  0.00    +0.000 C 
ATOM      7  C   UNL     1      24.023  38.687  22.614  0.00  0.00    +0.000 C 
ATOM      8  C   UNL     1      25.199  39.031  21.688  0.00  0.00    +0.000 C 
ATOM      9  C   UNL     1      26.258  39.359  22.512  0.00  0.00    +0.000 C 
ATOM     10  C   UNL     1      25.114  37.670  20.827  0.00  0.00    +0.000 C 
ATOM     11  C   UNL     1      26.449  37.918  19.908  0.00  0.00    +0.000 C 
ATOM     12  C   UNL     1      25.761  38.781  18.838  0.00  0.00    +0.000 C 
ATOM     13  C   UNL     1      25.873  40.100  19.534  0.00  0.00    +0.000 C 
ATOM     14  C   UNL     1      27.219  40.182  20.159  0.00  0.00    +0.000 C 
ATOM     15  C   UNL     1      24.704  40.188  20.664  0.00  0.00    +0.000 C 
ATOM     16  C   UNL     1      25.477  41.388  21.464  0.00  0.00    +0.000 C 
ATOM     17  C   UNL     1      25.971  42.385  20.549  0.00  0.00    +0.000 C 
ATOM     18  C   UNL     1      26.291  42.378  19.325  0.00  0.00    +0.000 C 
ATOM     19  C   UNL     1      26.249  43.622  18.306  0.00  0.00    +0.000 C 
ATOM     20  C   UNL     1      27.281  44.511  19.307  0.00  0.00    +0.000 C 
ATOM     21  C   UNL     1      26.313  44.918  20.525  0.00  0.00    +0.000 C 
ATOM     22  C   UNL     1      27.162  46.055  18.633  0.00  0.00    +0.000 C 
ATOM     23  C   UNL     1      27.889  45.644  17.233  0.00  0.00    +0.000 C 
ATOM     24  C   UNL     1      25.689  46.004  17.977  0.00  0.00    +0.000 C 
ATOM     25  C   UNL     1      24.708  45.552  19.009  0.00  0.00    +0.000 C 
ATOM     26  C   UNL     1      24.767  44.128  18.668  0.00  0.00    +0.000 C 
ATOM     30  C   UNL     1      23.929  43.141  19.250  0.00  0.00    +0.000 C 
ATOM     31  C   UNL     1      24.130  41.740  18.791  0.00  0.00    +0.000 C 
ATOM     32  C   UNL     1      25.536  41.257  18.641  0.00  0.00    +0.000 C 
ATOM     33  C   UNL     1      25.857  41.062  17.209  0.00  0.00    +0.000 C 
ATOM     34  C   UNL     1      25.911  36.709  21.840  0.00  0.00    +0.000 C 
ATOM     35  C   UNL     1      26.377  35.575  20.932  0.00  0.00    +0.000 C 
ATOM     36  C   UNL     1      27.093  37.086  22.468  0.00  0.00    +0.000 C 
ENDROOT
BRANCH  26  27
ATOM     27  C   UNL     1      24.183  44.173  17.262  0.00  0.00    +0.000 C 
ATOM     28  O   UNL     1      24.738  44.111  16.172  0.00  0.00    +0.000 OA
ATOM     29  O   UNL     1      22.823  44.512  17.267  0.00  0.00    +0.000 OA
ENDBRANCH  26  27
BRANCH   5   4
ATOM      4  O   UNL     1      24.105  35.292  21.744  0.00  0.00    +0.000 OA
BRANCH   4   2
ATOM      1  C   UNL     1      24.025  33.230  23.051  0.00  0.00    +0.000 C 
ATOM      2  C   UNL     1      23.484  34.121  22.183  0.00  0.00    +0.000 C 
ATOM      3  O   UNL     1      22.295  33.935  21.782  0.00  0.00    +0.000 OA
ENDBRANCH   4   2
ENDBRANCH   5   4
TORSDOF 3
ENDMDL
