MODEL 1
REMARK VINA RESULT:      -8.2      0.000      0.000
REMARK  Name = 
REMARK  3 active torsions:
REMARK  status: ('A' for Active; 'I' for Inactive)
REMARK    1  A    between atoms: C_2  and  O_4
REMARK    2  A    between atoms: O_4  and  C_5
REMARK    3  A    between atoms: C_26  and  C_27
REMARK                            x       y       z     vdW  Elec       q    Type
REMARK                         _______ _______ _______ _____ _____    ______ ____
ROOT
ATOM      5  C   UNL     1      26.385  52.540 -16.612  0.00  0.00    +0.000 C 
ATOM      6  C   UNL     1      25.596  52.138 -18.015  0.00  0.00    +0.000 C 
ATOM      7  C   UNL     1      26.693  52.119 -18.959  0.00  0.00    +0.000 C 
ATOM      8  C   UNL     1      27.802  51.324 -18.818  0.00  0.00    +0.000 C 
ATOM      9  C   UNL     1      27.732  49.818 -19.088  0.00  0.00    +0.000 C 
ATOM     10  C   UNL     1      28.562  51.358 -17.397  0.00  0.00    +0.000 C 
ATOM     11  C   UNL     1      28.612  52.988 -17.249  0.00  0.00    +0.000 C 
ATOM     12  C   UNL     1      28.714  53.657 -18.506  0.00  0.00    +0.000 C 
ATOM     13  C   UNL     1      29.241  53.122 -19.702  0.00  0.00    +0.000 C 
ATOM     14  C   UNL     1      30.765  53.050 -19.515  0.00  0.00    +0.000 C 
ATOM     15  C   UNL     1      28.963  51.538 -19.928  0.00  0.00    +0.000 C 
ATOM     16  C   UNL     1      27.781  51.722 -21.054  0.00  0.00    +0.000 C 
ATOM     17  C   UNL     1      28.589  51.950 -22.227  0.00  0.00    +0.000 C 
ATOM     18  C   UNL     1      29.245  53.114 -22.208  0.00  0.00    +0.000 C 
ATOM     19  C   UNL     1      28.946  54.116 -23.422  0.00  0.00    +0.000 C 
ATOM     20  C   UNL     1      29.212  52.915 -24.582  0.00  0.00    +0.000 C 
ATOM     21  C   UNL     1      27.636  52.572 -24.611  0.00  0.00    +0.000 C 
ATOM     22  C   UNL     1      29.343  53.895 -25.954  0.00  0.00    +0.000 C 
ATOM     23  C   UNL     1      27.820  53.786 -26.517  0.00  0.00    +0.000 C 
ATOM     24  C   UNL     1      29.065  55.354 -25.292  0.00  0.00    +0.000 C 
ATOM     25  C   UNL     1      30.446  55.541 -24.661  0.00  0.00    +0.000 C 
ATOM     26  C   UNL     1      30.453  54.698 -23.422  0.00  0.00    +0.000 C 
ATOM     30  C   UNL     1      30.391  55.613 -22.234  0.00  0.00    +0.000 C 
ATOM     31  C   UNL     1      30.020  55.026 -20.945  0.00  0.00    +0.000 C 
ATOM     32  C   UNL     1      29.052  53.880 -20.944  0.00  0.00    +0.000 C 
ATOM     33  C   UNL     1      27.660  54.494 -21.045  0.00  0.00    +0.000 C 
ATOM     34  C   UNL     1      27.179  51.128 -16.582  0.00  0.00    +0.000 C 
ATOM     35  C   UNL     1      27.589  50.647 -15.307  0.00  0.00    +0.000 C 
ATOM     36  C   UNL     1      26.351  50.053 -17.039  0.00  0.00    +0.000 C 
ENDROOT
BRANCH  26  27
ATOM     27  C   UNL     1      31.473  53.746 -23.259  0.00  0.00    +0.000 C 
ATOM     28  O   UNL     1      32.358  53.839 -24.175  0.00  0.00    +0.000 OA
ATOM     29  O   UNL     1      31.982  53.030 -22.198  0.00  0.00    +0.000 OA
ENDBRANCH  26  27
BRANCH   5   4
ATOM      4  O   UNL     1      25.241  51.950 -15.766  0.00  0.00    +0.000 OA
BRANCH   4   2
ATOM      1  C   UNL     1      24.747  53.885 -14.956  0.00  0.00    +0.000 C 
ATOM      2  C   UNL     1      24.514  52.821 -14.993  0.00  0.00    +0.000 C 
ATOM      3  O   UNL     1      23.465  52.441 -14.377  0.00  0.00    +0.000 OA
ENDBRANCH   4   2
ENDBRANCH   5   4
TORSDOF 3
ENDMDL
MODEL 2
REMARK VINA RESULT:      -7.7     33.824     38.135
REMARK  Name = 
REMARK  3 active torsions:
REMARK  status: ('A' for Active; 'I' for Inactive)
REMARK    1  A    between atoms: C_2  and  O_4
REMARK    2  A    between atoms: O_4  and  C_5
REMARK    3  A    between atoms: C_26  and  C_27
REMARK                            x       y       z     vdW  Elec       q    Type
REMARK                         _______ _______ _______ _____ _____    ______ ____
ROOT
ATOM      5  C   UNL     1      23.511  69.425  15.421  0.00  0.00    +0.000 C 
ATOM      6  C   UNL     1      23.385  70.112  13.917  0.00  0.00    +0.000 C 
ATOM      7  C   UNL     1      22.006  69.821  13.589  0.00  0.00    +0.000 C 
ATOM      8  C   UNL     1      20.943  70.217  14.359  0.00  0.00    +0.000 C 
ATOM      9  C   UNL     1      20.481  71.678  14.374  0.00  0.00    +0.000 C 
ATOM     10  C   UNL     1      21.007  69.887  15.936  0.00  0.00    +0.000 C 
ATOM     11  C   UNL     1      21.458  68.321  15.783  0.00  0.00    +0.000 C 
ATOM     12  C   UNL     1      20.935  67.705  14.606  0.00  0.00    +0.000 C 
ATOM     13  C   UNL     1      19.777  68.093  13.898  0.00  0.00    +0.000 C 
ATOM     14  C   UNL     1      18.576  67.671  14.760  0.00  0.00    +0.000 C 
ATOM     15  C   UNL     1      19.489  69.691  13.872  0.00  0.00    +0.000 C 
ATOM     16  C   UNL     1      19.977  69.937  12.323  0.00  0.00    +0.000 C 
ATOM     17  C   UNL     1      18.792  69.511  11.620  0.00  0.00    +0.000 C 
ATOM     18  C   UNL     1      18.554  68.200  11.713  0.00  0.00    +0.000 C 
ATOM     19  C   UNL     1      18.474  67.393  10.331  0.00  0.00    +0.000 C 
ATOM     20  C   UNL     1      17.378  68.493   9.662  0.00  0.00    +0.000 C 
ATOM     21  C   UNL     1      18.591  69.319   8.992  0.00  0.00    +0.000 C 
ATOM     22  C   UNL     1      16.856  67.578   8.339  0.00  0.00    +0.000 C 
ATOM     23  C   UNL     1      17.826  68.187   7.184  0.00  0.00    +0.000 C 
ATOM     24  C   UNL     1      17.786  66.257   8.519  0.00  0.00    +0.000 C 
ATOM     25  C   UNL     1      16.988  65.617   9.657  0.00  0.00    +0.000 C 
ATOM     26  C   UNL     1      17.365  66.364  10.900  0.00  0.00    +0.000 C 
ATOM     30  C   UNL     1      18.230  65.470  11.738  0.00  0.00    +0.000 C 
ATOM     31  C   UNL     1      19.014  66.092  12.807  0.00  0.00    +0.000 C 
ATOM     32  C   UNL     1      19.527  67.484  12.586  0.00  0.00    +0.000 C 
ATOM     33  C   UNL     1      20.799  67.347  11.758  0.00  0.00    +0.000 C 
ATOM     34  C   UNL     1      22.498  70.511  16.068  0.00  0.00    +0.000 C 
ATOM     35  C   UNL     1      22.650  70.786  17.456  0.00  0.00    +0.000 C 
ATOM     36  C   UNL     1      22.689  71.810  15.498  0.00  0.00    +0.000 C 
ENDROOT
BRANCH  26  27
ATOM     27  C   UNL     1      16.347  66.937  11.679  0.00  0.00    +0.000 C 
ATOM     28  O   UNL     1      15.227  66.940  11.066  0.00  0.00    +0.000 OA
ATOM     29  O   UNL     1      16.133  67.122  13.027  0.00  0.00    +0.000 OA
ENDBRANCH  26  27
BRANCH   5   4
ATOM      4  O   UNL     1      24.725  70.313  15.756  0.00  0.00    +0.000 OA
BRANCH   4   2
ATOM      1  C   UNL     1      25.902  68.761  16.679  0.00  0.00    +0.000 C 
ATOM      2  C   UNL     1      25.896  69.679  16.093  0.00  0.00    +0.000 C 
ATOM      3  O   UNL     1      27.017  70.076  15.636  0.00  0.00    +0.000 OA
ENDBRANCH   4   2
ENDBRANCH   5   4
TORSDOF 3
ENDMDL
MODEL 3
REMARK VINA RESULT:      -7.6     22.401     25.779
REMARK  Name = 
REMARK  3 active torsions:
REMARK  status: ('A' for Active; 'I' for Inactive)
REMARK    1  A    between atoms: C_2  and  O_4
REMARK    2  A    between atoms: O_4  and  C_5
REMARK    3  A    between atoms: C_26  and  C_27
REMARK                            x       y       z     vdW  Elec       q    Type
REMARK                         _______ _______ _______ _____ _____    ______ ____
ROOT
ATOM      5  C   UNL     1       6.344  37.551 -16.196  0.00  0.00    +0.000 C 
ATOM      6  C   UNL     1       5.134  38.269 -15.317  0.00  0.00    +0.000 C 
ATOM      7  C   UNL     1       5.385  39.669 -15.584  0.00  0.00    +0.000 C 
ATOM      8  C   UNL     1       5.411  40.209 -16.845  0.00  0.00    +0.000 C 
ATOM      9  C   UNL     1       4.117  40.438 -17.631  0.00  0.00    +0.000 C 
ATOM     10  C   UNL     1       6.328  39.471 -17.947  0.00  0.00    +0.000 C 
ATOM     11  C   UNL     1       7.665  39.327 -17.015  0.00  0.00    +0.000 C 
ATOM     12  C   UNL     1       7.810  40.397 -16.081  0.00  0.00    +0.000 C 
ATOM     13  C   UNL     1       7.272  41.696 -16.203  0.00  0.00    +0.000 C 
ATOM     14  C   UNL     1       8.095  42.411 -17.287  0.00  0.00    +0.000 C 
ATOM     15  C   UNL     1       5.821  41.775 -16.929  0.00  0.00    +0.000 C 
ATOM     16  C   UNL     1       4.948  42.023 -15.559  0.00  0.00    +0.000 C 
ATOM     17  C   UNL     1       5.158  43.439 -15.385  0.00  0.00    +0.000 C 
ATOM     18  C   UNL     1       6.415  43.760 -15.067  0.00  0.00    +0.000 C 
ATOM     19  C   UNL     1       6.618  44.556 -13.692  0.00  0.00    +0.000 C 
ATOM     20  C   UNL     1       5.437  45.699 -14.089  0.00  0.00    +0.000 C 
ATOM     21  C   UNL     1       4.319  44.839 -13.307  0.00  0.00    +0.000 C 
ATOM     22  C   UNL     1       5.799  46.871 -12.924  0.00  0.00    +0.000 C 
ATOM     23  C   UNL     1       4.708  46.471 -11.784  0.00  0.00    +0.000 C 
ATOM     24  C   UNL     1       7.003  46.122 -12.129  0.00  0.00    +0.000 C 
ATOM     25  C   UNL     1       8.102  46.382 -13.162  0.00  0.00    +0.000 C 
ATOM     26  C   UNL     1       7.874  45.394 -14.266  0.00  0.00    +0.000 C 
ATOM     30  C   UNL     1       8.953  44.353 -14.190  0.00  0.00    +0.000 C 
ATOM     31  C   UNL     1       8.738  43.102 -14.918  0.00  0.00    +0.000 C 
ATOM     32  C   UNL     1       7.335  42.587 -15.038  0.00  0.00    +0.000 C 
ATOM     33  C   UNL     1       7.031  41.859 -13.733  0.00  0.00    +0.000 C 
ATOM     34  C   UNL     1       5.687  38.022 -17.600  0.00  0.00    +0.000 C 
ATOM     35  C   UNL     1       5.967  37.222 -18.742  0.00  0.00    +0.000 C 
ATOM     36  C   UNL     1       4.257  37.961 -17.554  0.00  0.00    +0.000 C 
ENDROOT
BRANCH  26  27
ATOM     27  C   UNL     1       7.739  45.870 -15.580  0.00  0.00    +0.000 C 
ATOM     28  O   UNL     1       7.281  47.061 -15.608  0.00  0.00    +0.000 OA
ATOM     29  O   UNL     1       8.321  45.573 -16.793  0.00  0.00    +0.000 OA
ENDBRANCH  26  27
BRANCH   5   4
ATOM      4  O   UNL     1       5.564  36.224 -16.241  0.00  0.00    +0.000 OA
BRANCH   4   2
ATOM      1  C   UNL     1       7.189  35.118 -15.357  0.00  0.00    +0.000 C 
ATOM      2  C   UNL     1       6.133  35.136 -15.624  0.00  0.00    +0.000 C 
ATOM      3  O   UNL     1       5.424  34.151 -15.236  0.00  0.00    +0.000 OA
ENDBRANCH   4   2
ENDBRANCH   5   4
TORSDOF 3
ENDMDL
MODEL 4
REMARK VINA RESULT:      -7.5     36.594     40.696
REMARK  Name = 
REMARK  3 active torsions:
REMARK  status: ('A' for Active; 'I' for Inactive)
REMARK    1  A    between atoms: C_2  and  O_4
REMARK    2  A    between atoms: O_4  and  C_5
REMARK    3  A    between atoms: C_26  and  C_27
REMARK                            x       y       z     vdW  Elec       q    Type
REMARK                         _______ _______ _______ _____ _____    ______ ____
ROOT
ATOM      5  C   UNL     1      25.586  37.034  18.657  0.00  0.00    +0.000 C 
ATOM      6  C   UNL     1      26.823  37.670  17.754  0.00  0.00    +0.000 C 
ATOM      7  C   UNL     1      26.780  39.059  18.157  0.00  0.00    +0.000 C 
ATOM      8  C   UNL     1      26.907  39.476  19.458  0.00  0.00    +0.000 C 
ATOM      9  C   UNL     1      28.268  39.462  20.162  0.00  0.00    +0.000 C 
ATOM     10  C   UNL     1      25.972  38.761  20.559  0.00  0.00    +0.000 C 
ATOM     11  C   UNL     1      24.571  38.879  19.721  0.00  0.00    +0.000 C 
ATOM     12  C   UNL     1      24.512  40.042  18.896  0.00  0.00    +0.000 C 
ATOM     13  C   UNL     1      25.227  41.244  19.087  0.00  0.00    +0.000 C 
ATOM     14  C   UNL     1      24.579  41.954  20.286  0.00  0.00    +0.000 C 
ATOM     15  C   UNL     1      26.719  41.067  19.705  0.00  0.00    +0.000 C 
ATOM     16  C   UNL     1      27.529  41.329  18.300  0.00  0.00    +0.000 C 
ATOM     17  C   UNL     1      27.501  42.770  18.264  0.00  0.00    +0.000 C 
ATOM     18  C   UNL     1      26.280  43.278  18.070  0.00  0.00    +0.000 C 
ATOM     19  C   UNL     1      26.100  44.220  16.786  0.00  0.00    +0.000 C 
ATOM     20  C   UNL     1      27.447  45.160  17.189  0.00  0.00    +0.000 C 
ATOM     21  C   UNL     1      28.388  44.240  16.255  0.00  0.00    +0.000 C 
ATOM     22  C   UNL     1      27.174  46.473  16.159  0.00  0.00    +0.000 C 
ATOM     23  C   UNL     1      28.126  46.046  14.910  0.00  0.00    +0.000 C 
ATOM     24  C   UNL     1      25.832  45.964  15.396  0.00  0.00    +0.000 C 
ATOM     25  C   UNL     1      24.846  46.264  16.528  0.00  0.00    +0.000 C 
ATOM     26  C   UNL     1      25.007  45.155  17.522  0.00  0.00    +0.000 C 
ATOM     30  C   UNL     1      23.796  44.273  17.440  0.00  0.00    +0.000 C 
ATOM     31  C   UNL     1      23.885  42.941  18.040  0.00  0.00    +0.000 C 
ATOM     32  C   UNL     1      25.211  42.241  18.010  0.00  0.00    +0.000 C 
ATOM     33  C   UNL     1      25.331  41.607  16.629  0.00  0.00    +0.000 C 
ATOM     34  C   UNL     1      26.388  37.282  20.042  0.00  0.00    +0.000 C 
ATOM     35  C   UNL     1      26.075  36.420  21.131  0.00  0.00    +0.000 C 
ATOM     36  C   UNL     1      27.791  37.042  19.885  0.00  0.00    +0.000 C 
ENDROOT
BRANCH  26  27
ATOM     27  C   UNL     1      25.288  45.483  18.859  0.00  0.00    +0.000 C 
ATOM     28  O   UNL     1      25.701  46.686  18.974  0.00  0.00    +0.000 OA
ATOM     29  O   UNL     1      24.875  45.019  20.088  0.00  0.00    +0.000 OA
ENDBRANCH  26  27
BRANCH   5   4
ATOM      4  O   UNL     1      26.182  35.619  18.530  0.00  0.00    +0.000 OA
BRANCH   4   2
ATOM      1  C   UNL     1      24.576  34.571  17.545  0.00  0.00    +0.000 C 
ATOM      2  C   UNL     1      25.643  34.791  17.575  0.00  0.00    +0.000 C 
ATOM      3  O   UNL     1      26.350  34.338  16.618  0.00  0.00    +0.000 OA
ENDBRANCH   4   2
ENDBRANCH   5   4
TORSDOF 3
ENDMDL
MODEL 5
REMARK VINA RESULT:      -7.3     36.097     39.209
REMARK  Name = 
REMARK  3 active torsions:
REMARK  status: ('A' for Active; 'I' for Inactive)
REMARK    1  A    between atoms: C_2  and  O_4
REMARK    2  A    between atoms: O_4  and  C_5
REMARK    3  A    between atoms: C_26  and  C_27
REMARK                            x       y       z     vdW  Elec       q    Type
REMARK                         _______ _______ _______ _____ _____    ______ ____
ROOT
ATOM      5  C   UNL     1      25.574  71.668  14.491  0.00  0.00    +0.000 C 
ATOM      6  C   UNL     1      24.423  72.310  13.483  0.00  0.00    +0.000 C 
ATOM      7  C   UNL     1      23.268  71.511  13.830  0.00  0.00    +0.000 C 
ATOM      8  C   UNL     1      22.759  71.423  15.101  0.00  0.00    +0.000 C 
ATOM      9  C   UNL     1      21.964  72.580  15.714  0.00  0.00    +0.000 C 
ATOM     10  C   UNL     1      23.793  71.082  16.290  0.00  0.00    +0.000 C 
ATOM     11  C   UNL     1      24.534  69.829  15.542  0.00  0.00    +0.000 C 
ATOM     12  C   UNL     1      23.662  69.105  14.674  0.00  0.00    +0.000 C 
ATOM     13  C   UNL     1      22.255  69.031  14.768  0.00  0.00    +0.000 C 
ATOM     14  C   UNL     1      21.943  68.135  15.977  0.00  0.00    +0.000 C 
ATOM     15  C   UNL     1      21.529  70.386  15.294  0.00  0.00    +0.000 C 
ATOM     16  C   UNL     1      20.962  70.866  13.829  0.00  0.00    +0.000 C 
ATOM     17  C   UNL     1      19.787  70.036  13.734  0.00  0.00    +0.000 C 
ATOM     18  C   UNL     1      20.058  68.735  13.600  0.00  0.00    +0.000 C 
ATOM     19  C   UNL     1      19.469  68.019  12.293  0.00  0.00    +0.000 C 
ATOM     20  C   UNL     1      17.914  68.623  12.567  0.00  0.00    +0.000 C 
ATOM     21  C   UNL     1      18.219  69.887  11.612  0.00  0.00    +0.000 C 
ATOM     22  C   UNL     1      17.052  67.630  11.503  0.00  0.00    +0.000 C 
ATOM     23  C   UNL     1      16.965  68.619  10.213  0.00  0.00    +0.000 C 
ATOM     24  C   UNL     1      18.274  66.779  10.851  0.00  0.00    +0.000 C 
ATOM     25  C   UNL     1      18.493  65.830  12.032  0.00  0.00    +0.000 C 
ATOM     26  C   UNL     1      19.251  66.614  13.059  0.00  0.00    +0.000 C 
ATOM     30  C   UNL     1      20.660  66.101  13.093  0.00  0.00    +0.000 C 
ATOM     31  C   UNL     1      21.671  66.938  13.742  0.00  0.00    +0.000 C 
ATOM     32  C   UNL     1      21.515  68.427  13.653  0.00  0.00    +0.000 C 
ATOM     33  C   UNL     1      22.073  68.838  12.295  0.00  0.00    +0.000 C 
ATOM     34  C   UNL     1      24.824  72.238  15.809  0.00  0.00    +0.000 C 
ATOM     35  C   UNL     1      25.634  72.494  16.951  0.00  0.00    +0.000 C 
ATOM     36  C   UNL     1      24.253  73.529  15.570  0.00  0.00    +0.000 C 
ENDROOT
BRANCH  26  27
ATOM     27  C   UNL     1      18.727  66.705  14.360  0.00  0.00    +0.000 C 
ATOM     28  O   UNL     1      18.887  65.619  15.012  0.00  0.00    +0.000 OA
ATOM     29  O   UNL     1      18.460  67.733  15.237  0.00  0.00    +0.000 OA
ENDBRANCH  26  27
BRANCH   5   4
ATOM      4  O   UNL     1      26.423  72.949  14.384  0.00  0.00    +0.000 OA
BRANCH   4   2
ATOM      1  C   UNL     1      28.333  72.095  13.865  0.00  0.00    +0.000 C 
ATOM      2  C   UNL     1      27.594  72.871  13.670  0.00  0.00    +0.000 C 
ATOM      3  O   UNL     1      27.812  73.635  12.674  0.00  0.00    +0.000 OA
ENDBRANCH   4   2
ENDBRANCH   5   4
TORSDOF 3
ENDMDL
MODEL 6
REMARK VINA RESULT:      -7.2     34.642     40.499
REMARK  Name = 
REMARK  3 active torsions:
REMARK  status: ('A' for Active; 'I' for Inactive)
REMARK    1  A    between atoms: C_2  and  O_4
REMARK    2  A    between atoms: O_4  and  C_5
REMARK    3  A    between atoms: C_26  and  C_27
REMARK                            x       y       z     vdW  Elec       q    Type
REMARK                         _______ _______ _______ _____ _____    ______ ____
ROOT
ATOM      5  C   UNL     1       6.106  58.641   7.601  0.00  0.00    +0.000 C 
ATOM      6  C   UNL     1       4.698  57.832   7.261  0.00  0.00    +0.000 C 
ATOM      7  C   UNL     1       3.709  58.809   7.660  0.00  0.00    +0.000 C 
ATOM      8  C   UNL     1       3.640  60.076   7.139  0.00  0.00    +0.000 C 
ATOM      9  C   UNL     1       3.103  60.320   5.725  0.00  0.00    +0.000 C 
ATOM     10  C   UNL     1       5.001  60.942   7.117  0.00  0.00    +0.000 C 
ATOM     11  C   UNL     1       5.441  60.640   8.664  0.00  0.00    +0.000 C 
ATOM     12  C   UNL     1       4.325  60.469   9.536  0.00  0.00    +0.000 C 
ATOM     13  C   UNL     1       3.024  60.985   9.348  0.00  0.00    +0.000 C 
ATOM     14  C   UNL     1       3.111  62.497   9.610  0.00  0.00    +0.000 C 
ATOM     15  C   UNL     1       2.527  61.049   7.803  0.00  0.00    +0.000 C 
ATOM     16  C   UNL     1       1.520  59.754   7.885  0.00  0.00    +0.000 C 
ATOM     17  C   UNL     1       0.367  60.374   8.489  0.00  0.00    +0.000 C 
ATOM     18  C   UNL     1       0.563  60.752   9.756  0.00  0.00    +0.000 C 
ATOM     19  C   UNL     1      -0.429  60.121  10.845  0.00  0.00    +0.000 C 
ATOM     20  C   UNL     1      -1.802  60.538   9.951  0.00  0.00    +0.000 C 
ATOM     21  C   UNL     1      -1.808  59.083   9.253  0.00  0.00    +0.000 C 
ATOM     22  C   UNL     1      -2.977  60.314  11.147  0.00  0.00    +0.000 C 
ATOM     23  C   UNL     1      -3.466  58.807  10.774  0.00  0.00    +0.000 C 
ATOM     24  C   UNL     1      -2.044  59.780  12.368  0.00  0.00    +0.000 C 
ATOM     25  C   UNL     1      -1.465  61.139  12.770  0.00  0.00    +0.000 C 
ATOM     26  C   UNL     1      -0.404  61.453  11.760  0.00  0.00    +0.000 C 
ATOM     30  C   UNL     1       0.933  61.301  12.424  0.00  0.00    +0.000 C 
ATOM     31  C   UNL     1       2.110  61.196  11.561  0.00  0.00    +0.000 C 
ATOM     32  C   UNL     1       1.954  60.514  10.235  0.00  0.00    +0.000 C 
ATOM     33  C   UNL     1       2.044  59.017  10.508  0.00  0.00    +0.000 C 
ATOM     34  C   UNL     1       5.833  59.730   6.433  0.00  0.00    +0.000 C 
ATOM     35  C   UNL     1       6.974  60.357   5.859  0.00  0.00    +0.000 C 
ATOM     36  C   UNL     1       5.233  59.124   5.283  0.00  0.00    +0.000 C 
ENDROOT
BRANCH  26  27
ATOM     27  C   UNL     1      -0.474  62.671  11.064  0.00  0.00    +0.000 C 
ATOM     28  O   UNL     1      -1.584  63.269  11.267  0.00  0.00    +0.000 OA
ATOM     29  O   UNL     1       0.446  63.565  10.563  0.00  0.00    +0.000 OA
ENDBRANCH  26  27
BRANCH   5   4
ATOM      4  O   UNL     1       6.891  57.744   6.625  0.00  0.00    +0.000 OA
BRANCH   4   2
ATOM      1  C   UNL     1       8.382  57.166   8.070  0.00  0.00    +0.000 C 
ATOM      2  C   UNL     1       7.840  56.908   7.160  0.00  0.00    +0.000 C 
ATOM      3  O   UNL     1       8.044  55.747   6.679  0.00  0.00    +0.000 OA
ENDBRANCH   4   2
ENDBRANCH   5   4
TORSDOF 3
ENDMDL
MODEL 7
REMARK VINA RESULT:      -7.0     33.911     39.691
REMARK  Name = 
REMARK  3 active torsions:
REMARK  status: ('A' for Active; 'I' for Inactive)
REMARK    1  A    between atoms: C_2  and  O_4
REMARK    2  A    between atoms: O_4  and  C_5
REMARK    3  A    between atoms: C_26  and  C_27
REMARK                            x       y       z     vdW  Elec       q    Type
REMARK                         _______ _______ _______ _____ _____    ______ ____
ROOT
ATOM      5  C   UNL     1       7.186  58.941   7.703  0.00  0.00    +0.000 C 
ATOM      6  C   UNL     1       6.302  58.068   8.803  0.00  0.00    +0.000 C 
ATOM      7  C   UNL     1       4.986  58.642   8.624  0.00  0.00    +0.000 C 
ATOM      8  C   UNL     1       4.323  58.662   7.422  0.00  0.00    +0.000 C 
ATOM      9  C   UNL     1       3.691  57.390   6.849  0.00  0.00    +0.000 C 
ATOM     10  C   UNL     1       5.128  59.222   6.142  0.00  0.00    +0.000 C 
ATOM     11  C   UNL     1       5.707  60.574   6.860  0.00  0.00    +0.000 C 
ATOM     12  C   UNL     1       4.824  61.098   7.851  0.00  0.00    +0.000 C 
ATOM     13  C   UNL     1       3.427  60.906   7.919  0.00  0.00    +0.000 C 
ATOM     14  C   UNL     1       2.813  61.755   6.794  0.00  0.00    +0.000 C 
ATOM     15  C   UNL     1       2.908  59.451   7.415  0.00  0.00    +0.000 C 
ATOM     16  C   UNL     1       2.616  58.836   8.910  0.00  0.00    +0.000 C 
ATOM     17  C   UNL     1       1.327  59.426   9.173  0.00  0.00    +0.000 C 
ATOM     18  C   UNL     1       1.366  60.751   9.336  0.00  0.00    +0.000 C 
ATOM     19  C   UNL     1       0.813  61.311  10.732  0.00  0.00    +0.000 C 
ATOM     20  C   UNL     1      -0.625  60.430  10.605  0.00  0.00    +0.000 C 
ATOM     21  C   UNL     1       0.020  59.224  11.461  0.00  0.00    +0.000 C 
ATOM     22  C   UNL     1      -1.525  61.215  11.802  0.00  0.00    +0.000 C 
ATOM     23  C   UNL     1      -1.274  60.197  13.047  0.00  0.00    +0.000 C 
ATOM     24  C   UNL     1      -0.414  62.267  12.352  0.00  0.00    +0.000 C 
ATOM     25  C   UNL     1      -0.516  63.268  11.199  0.00  0.00    +0.000 C 
ATOM     26  C   UNL     1       0.248  62.667  10.059  0.00  0.00    +0.000 C 
ATOM     30  C   UNL     1       1.523  63.439   9.892  0.00  0.00    +0.000 C 
ATOM     31  C   UNL     1       2.588  62.825   9.098  0.00  0.00    +0.000 C 
ATOM     32  C   UNL     1       2.724  61.332   9.135  0.00  0.00    +0.000 C 
ATOM     33  C   UNL     1       3.504  61.001  10.402  0.00  0.00    +0.000 C 
ATOM     34  C   UNL     1       6.405  58.271   6.452  0.00  0.00    +0.000 C 
ATOM     35  C   UNL     1       7.108  58.200   5.217  0.00  0.00    +0.000 C 
ATOM     36  C   UNL     1       6.117  56.890   6.694  0.00  0.00    +0.000 C 
ENDROOT
BRANCH  26  27
ATOM     27  C   UNL     1      -0.399  62.509   8.822  0.00  0.00    +0.000 C 
ATOM     28  O   UNL     1      -1.641  62.796   8.897  0.00  0.00    +0.000 OA
ATOM     29  O   UNL     1      -0.003  62.521   7.503  0.00  0.00    +0.000 OA
ENDBRANCH  26  27
BRANCH   5   4
ATOM      4  O   UNL     1       8.266  57.842   7.657  0.00  0.00    +0.000 OA
BRANCH   4   2
ATOM      1  C   UNL     1      10.282  57.526   8.351  0.00  0.00    +0.000 C 
ATOM      2  C   UNL     1       9.561  58.219   7.917  0.00  0.00    +0.000 C 
ATOM      3  O   UNL     1      10.003  59.358   7.557  0.00  0.00    +0.000 OA
ENDBRANCH   4   2
ENDBRANCH   5   4
TORSDOF 3
ENDMDL
MODEL 8
REMARK VINA RESULT:      -7.0     36.116     41.697
REMARK  Name = 
REMARK  3 active torsions:
REMARK  status: ('A' for Active; 'I' for Inactive)
REMARK    1  A    between atoms: C_2  and  O_4
REMARK    2  A    between atoms: O_4  and  C_5
REMARK    3  A    between atoms: C_26  and  C_27
REMARK                            x       y       z     vdW  Elec       q    Type
REMARK                         _______ _______ _______ _____ _____    ______ ____
ROOT
ATOM      5  C   UNL     1      25.921  44.376  16.786  0.00  0.00    +0.000 C 
ATOM      6  C   UNL     1      25.073  43.073  16.207  0.00  0.00    +0.000 C 
ATOM      7  C   UNL     1      25.120  42.180  17.343  0.00  0.00    +0.000 C 
ATOM      8  C   UNL     1      24.649  42.510  18.589  0.00  0.00    +0.000 C 
ATOM      9  C   UNL     1      23.145  42.564  18.874  0.00  0.00    +0.000 C 
ATOM     10  C   UNL     1      25.143  43.909  19.220  0.00  0.00    +0.000 C 
ATOM     11  C   UNL     1      26.735  43.709  18.897  0.00  0.00    +0.000 C 
ATOM     12  C   UNL     1      27.143  42.342  18.936  0.00  0.00    +0.000 C 
ATOM     13  C   UNL     1      26.516  41.298  19.651  0.00  0.00    +0.000 C 
ATOM     14  C   UNL     1      26.839  41.530  21.136  0.00  0.00    +0.000 C 
ATOM     15  C   UNL     1      24.898  41.407  19.749  0.00  0.00    +0.000 C 
ATOM     16  C   UNL     1      24.573  40.241  18.638  0.00  0.00    +0.000 C 
ATOM     17  C   UNL     1      24.742  39.065  19.456  0.00  0.00    +0.000 C 
ATOM     18  C   UNL     1      26.005  38.852  19.834  0.00  0.00    +0.000 C 
ATOM     19  C   UNL     1      26.646  37.447  19.406  0.00  0.00    +0.000 C 
ATOM     20  C   UNL     1      25.332  36.574  20.014  0.00  0.00    +0.000 C 
ATOM     21  C   UNL     1      24.633  36.582  18.559  0.00  0.00    +0.000 C 
ATOM     22  C   UNL     1      26.019  35.028  20.020  0.00  0.00    +0.000 C 
ATOM     23  C   UNL     1      25.448  34.468  18.603  0.00  0.00    +0.000 C 
ATOM     24  C   UNL     1      27.475  35.360  19.379  0.00  0.00    +0.000 C 
ATOM     25  C   UNL     1      28.101  35.968  20.636  0.00  0.00    +0.000 C 
ATOM     26  C   UNL     1      27.549  37.357  20.743  0.00  0.00    +0.000 C 
ATOM     30  C   UNL     1      28.644  38.323  20.395  0.00  0.00    +0.000 C 
ATOM     31  C   UNL     1      28.259  39.698  20.074  0.00  0.00    +0.000 C 
ATOM     32  C   UNL     1      26.944  39.919  19.387  0.00  0.00    +0.000 C 
ATOM     33  C   UNL     1      27.185  39.660  17.904  0.00  0.00    +0.000 C 
ATOM     34  C   UNL     1      24.767  44.722  17.869  0.00  0.00    +0.000 C 
ATOM     35  C   UNL     1      24.661  46.079  18.284  0.00  0.00    +0.000 C 
ATOM     36  C   UNL     1      23.460  44.486  17.335  0.00  0.00    +0.000 C 
ENDROOT
BRANCH  26  27
ATOM     27  C   UNL     1      26.913  37.741  21.934  0.00  0.00    +0.000 C 
ATOM     28  O   UNL     1      26.700  36.742  22.700  0.00  0.00    +0.000 OA
ATOM     29  O   UNL     1      26.820  38.907  22.663  0.00  0.00    +0.000 OA
ENDBRANCH  26  27
BRANCH   5   4
ATOM      4  O   UNL     1      25.264  45.303  15.744  0.00  0.00    +0.000 OA
BRANCH   4   2
ATOM      1  C   UNL     1      27.180  46.001  15.047  0.00  0.00    +0.000 C 
ATOM      2  C   UNL     1      26.099  46.016  14.918  0.00  0.00    +0.000 C 
ATOM      3  O   UNL     1      25.650  46.631  13.898  0.00  0.00    +0.000 OA
ENDBRANCH   4   2
ENDBRANCH   5   4
TORSDOF 3
ENDMDL
MODEL 9
REMARK VINA RESULT:      -6.9     60.767     66.145
REMARK  Name = 
REMARK  3 active torsions:
REMARK  status: ('A' for Active; 'I' for Inactive)
REMARK    1  A    between atoms: C_2  and  O_4
REMARK    2  A    between atoms: O_4  and  C_5
REMARK    3  A    between atoms: C_26  and  C_27
REMARK                            x       y       z     vdW  Elec       q    Type
REMARK                         _______ _______ _______ _____ _____    ______ ____
ROOT
ATOM      5  C   UNL     1     -18.842  74.279  27.122  0.00  0.00    +0.000 C 
ATOM      6  C   UNL     1     -18.824  74.622  25.500  0.00  0.00    +0.000 C 
ATOM      7  C   UNL     1     -17.711  73.813  25.054  0.00  0.00    +0.000 C 
ATOM      8  C   UNL     1     -17.639  72.455  25.231  0.00  0.00    +0.000 C 
ATOM      9  C   UNL     1     -18.486  71.503  24.381  0.00  0.00    +0.000 C 
ATOM     10  C   UNL     1     -17.914  71.887  26.715  0.00  0.00    +0.000 C 
ATOM     11  C   UNL     1     -16.938  72.938  27.503  0.00  0.00    +0.000 C 
ATOM     12  C   UNL     1     -15.807  73.335  26.728  0.00  0.00    +0.000 C 
ATOM     13  C   UNL     1     -15.217  72.608  25.671  0.00  0.00    +0.000 C 
ATOM     14  C   UNL     1     -14.475  71.425  26.314  0.00  0.00    +0.000 C 
ATOM     15  C   UNL     1     -16.255  71.757  24.757  0.00  0.00    +0.000 C 
ATOM     16  C   UNL     1     -16.242  72.779  23.470  0.00  0.00    +0.000 C 
ATOM     17  C   UNL     1     -15.021  72.354  22.830  0.00  0.00    +0.000 C 
ATOM     18  C   UNL     1     -13.920  72.646  23.527  0.00  0.00    +0.000 C 
ATOM     19  C   UNL     1     -12.834  73.563  22.786  0.00  0.00    +0.000 C 
ATOM     20  C   UNL     1     -12.832  72.583  21.408  0.00  0.00    +0.000 C 
ATOM     21  C   UNL     1     -13.946  73.523  20.718  0.00  0.00    +0.000 C 
ATOM     22  C   UNL     1     -11.429  73.168  20.667  0.00  0.00    +0.000 C 
ATOM     23  C   UNL     1     -12.089  74.236  19.632  0.00  0.00    +0.000 C 
ATOM     24  C   UNL     1     -11.017  74.339  21.717  0.00  0.00    +0.000 C 
ATOM     25  C   UNL     1     -10.426  73.428  22.795  0.00  0.00    +0.000 C 
ATOM     26  C   UNL     1     -11.594  72.834  23.522  0.00  0.00    +0.000 C 
ATOM     30  C   UNL     1     -11.672  73.471  24.879  0.00  0.00    +0.000 C 
ATOM     31  C   UNL     1     -12.924  73.328  25.624  0.00  0.00    +0.000 C 
ATOM     32  C   UNL     1     -14.206  73.280  24.846  0.00  0.00    +0.000 C 
ATOM     33  C   UNL     1     -14.576  74.726  24.536  0.00  0.00    +0.000 C 
ATOM     34  C   UNL     1     -19.284  72.744  26.856  0.00  0.00    +0.000 C 
ATOM     35  C   UNL     1     -20.009  72.093  27.892  0.00  0.00    +0.000 C 
ATOM     36  C   UNL     1     -20.202  72.646  25.762  0.00  0.00    +0.000 C 
ENDROOT
BRANCH  26  27
ATOM     27  C   UNL     1     -11.685  71.437  23.627  0.00  0.00    +0.000 C 
ATOM     28  O   UNL     1     -10.717  70.853  23.032  0.00  0.00    +0.000 OA
ATOM     29  O   UNL     1     -12.282  70.558  24.504  0.00  0.00    +0.000 OA
ENDBRANCH  26  27
BRANCH   5   4
ATOM      4  O   UNL     1     -20.315  74.717  27.228  0.00  0.00    +0.000 OA
BRANCH   4   2
ATOM      1  C   UNL     1     -21.106  75.561  29.048  0.00  0.00    +0.000 C 
ATOM      2  C   UNL     1     -20.608  75.742  28.095  0.00  0.00    +0.000 C 
ATOM      3  O   UNL     1     -20.208  76.930  27.872  0.00  0.00    +0.000 OA
ENDBRANCH   4   2
ENDBRANCH   5   4
TORSDOF 3
ENDMDL
MODEL 10
REMARK VINA RESULT:      -6.8     22.202     25.685
REMARK  Name = 
REMARK  3 active torsions:
REMARK  status: ('A' for Active; 'I' for Inactive)
REMARK    1  A    between atoms: C_2  and  O_4
REMARK    2  A    between atoms: O_4  and  C_5
REMARK    3  A    between atoms: C_26  and  C_27
REMARK                            x       y       z     vdW  Elec       q    Type
REMARK                         _______ _______ _______ _____ _____    ______ ____
ROOT
ATOM      5  C   UNL     1       6.709  45.127 -13.490  0.00  0.00    +0.000 C 
ATOM      6  C   UNL     1       7.229  43.655 -12.930  0.00  0.00    +0.000 C 
ATOM      7  C   UNL     1       7.217  42.871 -14.146  0.00  0.00    +0.000 C 
ATOM      8  C   UNL     1       7.927  43.204 -15.271  0.00  0.00    +0.000 C 
ATOM      9  C   UNL     1       9.445  43.012 -15.332  0.00  0.00    +0.000 C 
ATOM     10  C   UNL     1       7.774  44.711 -15.824  0.00  0.00    +0.000 C 
ATOM     11  C   UNL     1       6.140  44.773 -15.752  0.00  0.00    +0.000 C 
ATOM     12  C   UNL     1       5.525  43.507 -15.987  0.00  0.00    +0.000 C 
ATOM     13  C   UNL     1       6.077  42.425 -16.706  0.00  0.00    +0.000 C 
ATOM     14  C   UNL     1       6.036  42.820 -18.191  0.00  0.00    +0.000 C 
ATOM     15  C   UNL     1       7.686  42.251 -16.560  0.00  0.00    +0.000 C 
ATOM     16  C   UNL     1       7.636  40.967 -15.537  0.00  0.00    +0.000 C 
ATOM     17  C   UNL     1       7.408  39.904 -16.484  0.00  0.00    +0.000 C 
ATOM     18  C   UNL     1       6.203  39.947 -17.059  0.00  0.00    +0.000 C 
ATOM     19  C   UNL     1       5.281  38.650 -16.870  0.00  0.00    +0.000 C 
ATOM     20  C   UNL     1       6.514  37.605 -17.368  0.00  0.00    +0.000 C 
ATOM     21  C   UNL     1       6.965  37.381 -15.835  0.00  0.00    +0.000 C 
ATOM     22  C   UNL     1       5.593  36.210 -17.627  0.00  0.00    +0.000 C 
ATOM     23  C   UNL     1       5.832  35.454 -16.207  0.00  0.00    +0.000 C 
ATOM     24  C   UNL     1       4.127  36.746 -17.171  0.00  0.00    +0.000 C 
ATOM     25  C   UNL     1       3.816  37.548 -18.437  0.00  0.00    +0.000 C 
ATOM     26  C   UNL     1       4.598  38.821 -18.324  0.00  0.00    +0.000 C 
ATOM     30  C   UNL     1       3.635  39.937 -18.042  0.00  0.00    +0.000 C 
ATOM     31  C   UNL     1       4.185  41.194 -17.532  0.00  0.00    +0.000 C 
ATOM     32  C   UNL     1       5.393  41.128 -16.645  0.00  0.00    +0.000 C 
ATOM     33  C   UNL     1       4.881  40.806 -15.246  0.00  0.00    +0.000 C 
ATOM     34  C   UNL     1       8.060  45.342 -14.357  0.00  0.00    +0.000 C 
ATOM     35  C   UNL     1       8.452  46.686 -14.615  0.00  0.00    +0.000 C 
ATOM     36  C   UNL     1       9.209  44.839 -13.669  0.00  0.00    +0.000 C 
ENDROOT
BRANCH  26  27
ATOM     27  C   UNL     1       5.469  39.173 -19.368  0.00  0.00    +0.000 C 
ATOM     28  O   UNL     1       5.632  38.213 -20.193  0.00  0.00    +0.000 OA
ATOM     29  O   UNL     1       5.867  40.355 -19.953  0.00  0.00    +0.000 OA
ENDBRANCH  26  27
BRANCH   5   4
ATOM      4  O   UNL     1       7.336  45.842 -12.278  0.00  0.00    +0.000 OA
BRANCH   4   2
ATOM      1  C   UNL     1       6.937  47.435 -10.882  0.00  0.00    +0.000 C 
ATOM      2  C   UNL     1       6.525  46.681 -11.552  0.00  0.00    +0.000 C 
ATOM      3  O   UNL     1       5.263  46.687 -11.719  0.00  0.00    +0.000 OA
ENDBRANCH   4   2
ENDBRANCH   5   4
TORSDOF 3
ENDMDL
