MODEL 1
REMARK VINA RESULT:      -7.5      0.000      0.000
REMARK  Name = 
REMARK  3 active torsions:
REMARK  status: ('A' for Active; 'I' for Inactive)
REMARK    1  A    between atoms: C_2  and  O_4
REMARK    2  A    between atoms: O_4  and  C_5
REMARK    3  A    between atoms: C_26  and  C_27
REMARK                            x       y       z     vdW  Elec       q    Type
REMARK                         _______ _______ _______ _____ _____    ______ ____
ROOT
ATOM      5  C   UNL     1      24.144  36.132  22.563  0.00  0.00    +0.000 C 
ATOM      6  C   UNL     1      23.168  37.462  22.578  0.00  0.00    +0.000 C 
ATOM      7  C   UNL     1      24.201  38.544  22.655  0.00  0.00    +0.000 C 
ATOM      8  C   UNL     1      24.947  38.517  21.325  0.00  0.00    +0.000 C 
ATOM      9  C   UNL     1      26.291  38.242  21.480  0.00  0.00    +0.000 C 
ATOM     10  C   UNL     1      24.049  37.558  20.372  0.00  0.00    +0.000 C 
ATOM     11  C   UNL     1      25.168  37.528  19.172  0.00  0.00    +0.000 C 
ATOM     12  C   UNL     1      24.667  38.810  18.504  0.00  0.00    +0.000 C 
ATOM     13  C   UNL     1      25.281  39.877  19.310  0.00  0.00    +0.000 C 
ATOM     14  C   UNL     1      26.731  39.691  19.387  0.00  0.00    +0.000 C 
ATOM     15  C   UNL     1      24.570  39.994  20.760  0.00  0.00    +0.000 C 
ATOM     16  C   UNL     1      25.868  40.731  21.431  0.00  0.00    +0.000 C 
ATOM     17  C   UNL     1      26.094  41.971  20.682  0.00  0.00    +0.000 C 
ATOM     18  C   UNL     1      26.112  42.099  19.418  0.00  0.00    +0.000 C 
ATOM     19  C   UNL     1      26.295  43.465  18.609  0.00  0.00    +0.000 C 
ATOM     20  C   UNL     1      27.255  44.141  19.833  0.00  0.00    +0.000 C 
ATOM     21  C   UNL     1      26.152  44.599  20.901  0.00  0.00    +0.000 C 
ATOM     22  C   UNL     1      27.559  45.622  19.066  0.00  0.00    +0.000 C 
ATOM     23  C   UNL     1      27.871  46.381  20.484  0.00  0.00    +0.000 C 
ATOM     24  C   UNL     1      26.112  46.301  19.018  0.00  0.00    +0.000 C 
ATOM     25  C   UNL     1      24.953  45.564  19.163  0.00  0.00    +0.000 C 
ATOM     26  C   UNL     1      24.850  44.135  18.903  0.00  0.00    +0.000 C 
ATOM     30  C   UNL     1      23.976  43.256  19.667  0.00  0.00    +0.000 C 
ATOM     31  C   UNL     1      23.858  41.931  18.897  0.00  0.00    +0.000 C 
ATOM     32  C   UNL     1      25.128  41.243  18.665  0.00  0.00    +0.000 C 
ATOM     33  C   UNL     1      25.700  41.106  17.312  0.00  0.00    +0.000 C 
ATOM     34  C   UNL     1      24.486  36.135  20.974  0.00  0.00    +0.000 C 
ATOM     35  C   UNL     1      25.886  35.793  20.763  0.00  0.00    +0.000 C 
ATOM     36  C   UNL     1      23.696  35.153  20.215  0.00  0.00    +0.000 C 
ENDROOT
BRANCH  26  27
ATOM     27  C   UNL     1      24.328  44.170  17.479  0.00  0.00    +0.000 C 
ATOM     28  O   UNL     1      25.127  44.235  16.479  0.00  0.00    +0.000 OA
ATOM     29  O   UNL     1      23.076  44.702  17.155  0.00  0.00    +0.000 OA
ENDBRANCH  26  27
BRANCH   5   4
ATOM      4  O   UNL     1      22.989  35.125  22.478  0.00  0.00    +0.000 OA
BRANCH   4   2
ATOM      1  C   UNL     1      22.908  32.862  23.379  0.00  0.00    +0.000 C 
ATOM      2  C   UNL     1      22.652  34.301  23.472  0.00  0.00    +0.000 C 
ATOM      3  O   UNL     1      21.916  34.705  24.390  0.00  0.00    +0.000 OA
ENDBRANCH   4   2
ENDBRANCH   5   4
TORSDOF 3
ENDMDL
MODEL 2
REMARK VINA RESULT:      -7.4     37.925     41.247
REMARK  Name = 
REMARK  3 active torsions:
REMARK  status: ('A' for Active; 'I' for Inactive)
REMARK    1  A    between atoms: C_2  and  O_4
REMARK    2  A    between atoms: O_4  and  C_5
REMARK    3  A    between atoms: C_26  and  C_27
REMARK                            x       y       z     vdW  Elec       q    Type
REMARK                         _______ _______ _______ _____ _____    ______ ____
ROOT
ATOM      5  C   UNL     1       6.462  47.457 -13.937  0.00  0.00    +0.000 C 
ATOM      6  C   UNL     1       5.174  46.671 -14.604  0.00  0.00    +0.000 C 
ATOM      7  C   UNL     1       5.854  45.972 -15.741  0.00  0.00    +0.000 C 
ATOM      8  C   UNL     1       6.774  44.930 -15.114  0.00  0.00    +0.000 C 
ATOM      9  C   UNL     1       8.101  45.145 -15.421  0.00  0.00    +0.000 C 
ATOM     10  C   UNL     1       6.322  44.873 -13.555  0.00  0.00    +0.000 C 
ATOM     11  C   UNL     1       7.578  43.909 -13.119  0.00  0.00    +0.000 C 
ATOM     12  C   UNL     1       6.859  42.605 -13.468  0.00  0.00    +0.000 C 
ATOM     13  C   UNL     1       7.033  42.497 -14.925  0.00  0.00    +0.000 C 
ATOM     14  C   UNL     1       8.450  42.590 -15.280  0.00  0.00    +0.000 C 
ATOM     15  C   UNL     1       6.103  43.571 -15.703  0.00  0.00    +0.000 C 
ATOM     16  C   UNL     1       7.037  43.531 -17.046  0.00  0.00    +0.000 C 
ATOM     17  C   UNL     1       7.034  42.149 -17.534  0.00  0.00    +0.000 C 
ATOM     18  C   UNL     1       7.209  41.101 -16.838  0.00  0.00    +0.000 C 
ATOM     19  C   UNL     1       7.139  39.594 -17.365  0.00  0.00    +0.000 C 
ATOM     20  C   UNL     1       7.684  40.036 -18.909  0.00  0.00    +0.000 C 
ATOM     21  C   UNL     1       6.349  40.622 -19.573  0.00  0.00    +0.000 C 
ATOM     22  C   UNL     1       7.692  38.480 -19.581  0.00  0.00    +0.000 C 
ATOM     23  C   UNL     1       7.568  39.056 -21.110  0.00  0.00    +0.000 C 
ATOM     24  C   UNL     1       6.141  38.093 -19.599  0.00  0.00    +0.000 C 
ATOM     25  C   UNL     1       5.214  38.747 -18.810  0.00  0.00    +0.000 C 
ATOM     26  C   UNL     1       5.540  39.473 -17.591  0.00  0.00    +0.000 C 
ATOM     30  C   UNL     1       4.829  40.674 -17.175  0.00  0.00    +0.000 C 
ATOM     31  C   UNL     1       5.190  40.945 -15.706  0.00  0.00    +0.000 C 
ATOM     32  C   UNL     1       6.618  41.135 -15.453  0.00  0.00    +0.000 C 
ATOM     33  C   UNL     1       7.405  40.156 -14.678  0.00  0.00    +0.000 C 
ATOM     34  C   UNL     1       7.029  46.221 -13.045  0.00  0.00    +0.000 C 
ATOM     35  C   UNL     1       8.485  46.197 -13.092  0.00  0.00    +0.000 C 
ATOM     36  C   UNL     1       6.657  46.321 -11.625  0.00  0.00    +0.000 C 
ENDROOT
BRANCH  26  27
ATOM     27  C   UNL     1       5.252  38.394 -16.564  0.00  0.00    +0.000 C 
ATOM     28  O   UNL     1       6.146  37.542 -16.225  0.00  0.00    +0.000 OA
ATOM     29  O   UNL     1       3.967  37.879 -16.362  0.00  0.00    +0.000 OA
ENDBRANCH  26  27
BRANCH   5   4
ATOM      4  O   UNL     1       5.647  48.108 -12.811  0.00  0.00    +0.000 OA
BRANCH   4   2
ATOM      1  C   UNL     1       3.658  49.499 -12.597  0.00  0.00    +0.000 C 
ATOM      2  C   UNL     1       5.076  49.309 -12.912  0.00  0.00    +0.000 C 
ATOM      3  O   UNL     1       5.675  50.235 -13.487  0.00  0.00    +0.000 OA
ENDBRANCH   4   2
ENDBRANCH   5   4
TORSDOF 3
ENDMDL
MODEL 3
REMARK VINA RESULT:      -7.3     39.287     42.345
REMARK  Name = 
REMARK  3 active torsions:
REMARK  status: ('A' for Active; 'I' for Inactive)
REMARK    1  A    between atoms: C_2  and  O_4
REMARK    2  A    between atoms: O_4  and  C_5
REMARK    3  A    between atoms: C_26  and  C_27
REMARK                            x       y       z     vdW  Elec       q    Type
REMARK                         _______ _______ _______ _____ _____    ______ ____
ROOT
ATOM      5  C   UNL     1       7.259  43.487 -14.933  0.00  0.00    +0.000 C 
ATOM      6  C   UNL     1       8.438  42.333 -14.899  0.00  0.00    +0.000 C 
ATOM      7  C   UNL     1       7.593  41.097 -14.867  0.00  0.00    +0.000 C 
ATOM      8  C   UNL     1       6.893  41.023 -16.220  0.00  0.00    +0.000 C 
ATOM      9  C   UNL     1       5.519  41.073 -16.106  0.00  0.00    +0.000 C 
ATOM     10  C   UNL     1       7.652  42.129 -17.134  0.00  0.00    +0.000 C 
ATOM     11  C   UNL     1       6.580  41.996 -18.369  0.00  0.00    +0.000 C 
ATOM     12  C   UNL     1       7.303  40.822 -19.033  0.00  0.00    +0.000 C 
ATOM     13  C   UNL     1       6.847  39.658 -18.259  0.00  0.00    +0.000 C 
ATOM     14  C   UNL     1       5.384  39.604 -18.227  0.00  0.00    +0.000 C 
ATOM     15  C   UNL     1       7.523  39.635 -16.788  0.00  0.00    +0.000 C 
ATOM     16  C   UNL     1       6.343  38.687 -16.167  0.00  0.00    +0.000 C 
ATOM     17  C   UNL     1       6.344  37.439 -16.936  0.00  0.00    +0.000 C 
ATOM     18  C   UNL     1       6.385  37.328 -18.201  0.00  0.00    +0.000 C 
ATOM     19  C   UNL     1       6.452  35.964 -19.029  0.00  0.00    +0.000 C 
ATOM     20  C   UNL     1       5.578  35.122 -17.844  0.00  0.00    +0.000 C 
ATOM     21  C   UNL     1       6.708  34.833 -16.746  0.00  0.00    +0.000 C 
ATOM     22  C   UNL     1       5.543  33.624 -18.636  0.00  0.00    +0.000 C 
ATOM     23  C   UNL     1       5.316  32.802 -17.236  0.00  0.00    +0.000 C 
ATOM     24  C   UNL     1       7.081  33.189 -18.643  0.00  0.00    +0.000 C 
ATOM     25  C   UNL     1       8.100  34.103 -18.453  0.00  0.00    +0.000 C 
ATOM     26  C   UNL     1       7.977  35.533 -18.695  0.00  0.00    +0.000 C 
ATOM     30  C   UNL     1       8.673  36.531 -17.894  0.00  0.00    +0.000 C 
ATOM     31  C   UNL     1       8.597  37.869 -18.647  0.00  0.00    +0.000 C 
ATOM     32  C   UNL     1       7.239  38.345 -18.913  0.00  0.00    +0.000 C 
ATOM     33  C   UNL     1       6.694  38.408 -20.282  0.00  0.00    +0.000 C 
ATOM     34  C   UNL     1       6.970  43.453 -16.532  0.00  0.00    +0.000 C 
ATOM     35  C   UNL     1       5.541  43.567 -16.785  0.00  0.00    +0.000 C 
ATOM     36  C   UNL     1       7.613  44.562 -17.254  0.00  0.00    +0.000 C 
ENDROOT
BRANCH  26  27
ATOM     27  C   UNL     1       8.540  35.604 -20.102  0.00  0.00    +0.000 C 
ATOM     28  O   UNL     1       7.784  35.486 -21.129  0.00  0.00    +0.000 OA
ATOM     29  O   UNL     1       9.853  35.226 -20.401  0.00  0.00    +0.000 OA
ENDBRANCH  26  27
BRANCH   5   4
ATOM      4  O   UNL     1       8.237  44.670 -14.970  0.00  0.00    +0.000 OA
BRANCH   4   2
ATOM      1  C   UNL     1       7.662  45.485 -12.746  0.00  0.00    +0.000 C 
ATOM      2  C   UNL     1       8.221  45.671 -14.088  0.00  0.00    +0.000 C 
ATOM      3  O   UNL     1       8.470  46.831 -14.461  0.00  0.00    +0.000 OA
ENDBRANCH   4   2
ENDBRANCH   5   4
TORSDOF 3
ENDMDL
MODEL 4
REMARK VINA RESULT:      -7.2      1.875      8.757
REMARK  Name = 
REMARK  3 active torsions:
REMARK  status: ('A' for Active; 'I' for Inactive)
REMARK    1  A    between atoms: C_2  and  O_4
REMARK    2  A    between atoms: O_4  and  C_5
REMARK    3  A    between atoms: C_26  and  C_27
REMARK                            x       y       z     vdW  Elec       q    Type
REMARK                         _______ _______ _______ _____ _____    ______ ____
ROOT
ATOM      5  C   UNL     1      25.836  44.756  16.597  0.00  0.00    +0.000 C 
ATOM      6  C   UNL     1      24.691  43.599  16.324  0.00  0.00    +0.000 C 
ATOM      7  C   UNL     1      25.558  42.377  16.295  0.00  0.00    +0.000 C 
ATOM      8  C   UNL     1      26.089  42.196  17.713  0.00  0.00    +0.000 C 
ATOM      9  C   UNL     1      27.465  42.267  17.774  0.00  0.00    +0.000 C 
ATOM     10  C   UNL     1      25.203  43.215  18.614  0.00  0.00    +0.000 C 
ATOM     11  C   UNL     1      26.119  42.988  19.957  0.00  0.00    +0.000 C 
ATOM     12  C   UNL     1      25.343  41.757  20.429  0.00  0.00    +0.000 C 
ATOM     13  C   UNL     1      25.911  40.665  19.623  0.00  0.00    +0.000 C 
ATOM     14  C   UNL     1      27.368  40.627  19.767  0.00  0.00    +0.000 C 
ATOM     15  C   UNL     1      25.420  40.760  18.083  0.00  0.00    +0.000 C 
ATOM     16  C   UNL     1      26.685  39.877  17.537  0.00  0.00    +0.000 C 
ATOM     17  C   UNL     1      26.613  38.569  18.195  0.00  0.00    +0.000 C 
ATOM     18  C   UNL     1      26.420  38.353  19.431  0.00  0.00    +0.000 C 
ATOM     19  C   UNL     1      26.278  36.923  20.130  0.00  0.00    +0.000 C 
ATOM     20  C   UNL     1      27.305  36.191  18.997  0.00  0.00    +0.000 C 
ATOM     21  C   UNL     1      26.324  35.986  17.748  0.00  0.00    +0.000 C 
ATOM     22  C   UNL     1      27.272  34.632  19.661  0.00  0.00    +0.000 C 
ATOM     23  C   UNL     1      27.683  33.933  18.237  0.00  0.00    +0.000 C 
ATOM     24  C   UNL     1      25.752  34.185  19.444  0.00  0.00    +0.000 C 
ATOM     25  C   UNL     1      24.747  35.103  19.205  0.00  0.00    +0.000 C 
ATOM     26  C   UNL     1      24.813  36.509  19.577  0.00  0.00    +0.000 C 
ATOM     30  C   UNL     1      24.202  37.564  18.782  0.00  0.00    +0.000 C 
ATOM     31  C   UNL     1      24.161  38.836  19.645  0.00  0.00    +0.000 C 
ATOM     32  C   UNL     1      25.466  39.299  20.114  0.00  0.00    +0.000 C 
ATOM     33  C   UNL     1      25.839  39.251  21.541  0.00  0.00    +0.000 C 
ATOM     34  C   UNL     1      25.928  44.591  18.212  0.00  0.00    +0.000 C 
ATOM     35  C   UNL     1      27.314  44.695  18.647  0.00  0.00    +0.000 C 
ATOM     36  C   UNL     1      25.181  45.630  18.938  0.00  0.00    +0.000 C 
ENDROOT
BRANCH  26  27
ATOM     27  C   UNL     1      24.081  36.458  20.905  0.00  0.00    +0.000 C 
ATOM     28  O   UNL     1      24.673  36.082  21.977  0.00  0.00    +0.000 OA
ATOM     29  O   UNL     1      22.703  36.238  20.991  0.00  0.00    +0.000 OA
ENDBRANCH  26  27
BRANCH   5   4
ATOM      4  O   UNL     1      24.839  45.923  16.611  0.00  0.00    +0.000 OA
BRANCH   4   2
ATOM      1  C   UNL     1      25.712  46.949  14.580  0.00  0.00    +0.000 C 
ATOM      2  C   UNL     1      24.950  46.999  15.830  0.00  0.00    +0.000 C 
ATOM      3  O   UNL     1      24.602  48.115  16.257  0.00  0.00    +0.000 OA
ENDBRANCH   4   2
ENDBRANCH   5   4
TORSDOF 3
ENDMDL
MODEL 5
REMARK VINA RESULT:      -7.2      2.546      8.857
REMARK  Name = 
REMARK  3 active torsions:
REMARK  status: ('A' for Active; 'I' for Inactive)
REMARK    1  A    between atoms: C_2  and  O_4
REMARK    2  A    between atoms: O_4  and  C_5
REMARK    3  A    between atoms: C_26  and  C_27
REMARK                            x       y       z     vdW  Elec       q    Type
REMARK                         _______ _______ _______ _____ _____    ______ ____
ROOT
ATOM      5  C   UNL     1      26.392  47.006  17.115  0.00  0.00    +0.000 C 
ATOM      6  C   UNL     1      27.595  46.121  17.816  0.00  0.00    +0.000 C 
ATOM      7  C   UNL     1      26.872  45.610  19.025  0.00  0.00    +0.000 C 
ATOM      8  C   UNL     1      25.810  44.645  18.511  0.00  0.00    +0.000 C 
ATOM      9  C   UNL     1      24.530  45.051  18.831  0.00  0.00    +0.000 C 
ATOM     10  C   UNL     1      26.197  44.402  16.953  0.00  0.00    +0.000 C 
ATOM     11  C   UNL     1      24.817  43.573  16.632  0.00  0.00    +0.000 C 
ATOM     12  C   UNL     1      25.380  42.221  17.075  0.00  0.00    +0.000 C 
ATOM     13  C   UNL     1      25.244  42.257  18.539  0.00  0.00    +0.000 C 
ATOM     14  C   UNL     1      23.863  42.557  18.918  0.00  0.00    +0.000 C 
ATOM     15  C   UNL     1      26.326  43.265  19.200  0.00  0.00    +0.000 C 
ATOM     16  C   UNL     1      25.441  43.455  20.563  0.00  0.00    +0.000 C 
ATOM     17  C   UNL     1      25.290  42.128  21.167  0.00  0.00    +0.000 C 
ATOM     18  C   UNL     1      24.961  41.057  20.569  0.00  0.00    +0.000 C 
ATOM     19  C   UNL     1      24.862  39.602  21.222  0.00  0.00    +0.000 C 
ATOM     20  C   UNL     1      24.430  40.235  22.734  0.00  0.00    +0.000 C 
ATOM     21  C   UNL     1      25.849  40.700  23.313  0.00  0.00    +0.000 C 
ATOM     22  C   UNL     1      24.252  38.753  23.538  0.00  0.00    +0.000 C 
ATOM     23  C   UNL     1      24.499  39.433  25.009  0.00  0.00    +0.000 C 
ATOM     24  C   UNL     1      25.743  38.176  23.553  0.00  0.00    +0.000 C 
ATOM     25  C   UNL     1      26.716  38.640  22.689  0.00  0.00    +0.000 C 
ATOM     26  C   UNL     1      26.441  39.299  21.420  0.00  0.00    +0.000 C 
ATOM     30  C   UNL     1      27.281  40.361  20.885  0.00  0.00    +0.000 C 
ATOM     31  C   UNL     1      26.906  40.554  19.407  0.00  0.00    +0.000 C 
ATOM     32  C   UNL     1      25.505  40.901  19.172  0.00  0.00    +0.000 C 
ATOM     33  C   UNL     1      24.576  39.969  18.504  0.00  0.00    +0.000 C 
ATOM     34  C   UNL     1      25.645  45.783  16.346  0.00  0.00    +0.000 C 
ATOM     35  C   UNL     1      24.201  45.947  16.429  0.00  0.00    +0.000 C 
ATOM     36  C   UNL     1      25.978  45.717  14.914  0.00  0.00    +0.000 C 
ENDROOT
BRANCH  26  27
ATOM     27  C   UNL     1      26.558  38.111  20.483  0.00  0.00    +0.000 C 
ATOM     28  O   UNL     1      25.552  37.357  20.236  0.00  0.00    +0.000 OA
ATOM     29  O   UNL     1      27.759  37.419  20.300  0.00  0.00    +0.000 OA
ENDBRANCH  26  27
BRANCH   5   4
ATOM      4  O   UNL     1      27.242  47.454  15.917  0.00  0.00    +0.000 OA
BRANCH   4   2
ATOM      1  C   UNL     1      29.276  48.639  15.286  0.00  0.00    +0.000 C 
ATOM      2  C   UNL     1      27.943  48.589  15.892  0.00  0.00    +0.000 C 
ATOM      3  O   UNL     1      27.576  49.560  16.577  0.00  0.00    +0.000 OA
ENDBRANCH   4   2
ENDBRANCH   5   4
TORSDOF 3
ENDMDL
MODEL 6
REMARK VINA RESULT:      -7.0     22.464     25.343
REMARK  Name = 
REMARK  3 active torsions:
REMARK  status: ('A' for Active; 'I' for Inactive)
REMARK    1  A    between atoms: C_2  and  O_4
REMARK    2  A    between atoms: O_4  and  C_5
REMARK    3  A    between atoms: C_26  and  C_27
REMARK                            x       y       z     vdW  Elec       q    Type
REMARK                         _______ _______ _______ _____ _____    ______ ____
ROOT
ATOM      5  C   UNL     1       4.211  51.467  16.350  0.00  0.00    +0.000 C 
ATOM      6  C   UNL     1       3.753  52.978  16.831  0.00  0.00    +0.000 C 
ATOM      7  C   UNL     1       2.973  52.634  18.063  0.00  0.00    +0.000 C 
ATOM      8  C   UNL     1       3.984  52.099  19.073  0.00  0.00    +0.000 C 
ATOM      9  C   UNL     1       3.723  50.795  19.439  0.00  0.00    +0.000 C 
ATOM     10  C   UNL     1       5.431  52.468  18.437  0.00  0.00    +0.000 C 
ATOM     11  C   UNL     1       6.260  51.601  19.556  0.00  0.00    +0.000 C 
ATOM     12  C   UNL     1       6.319  52.740  20.576  0.00  0.00    +0.000 C 
ATOM     13  C   UNL     1       5.002  52.683  21.228  0.00  0.00    +0.000 C 
ATOM     14  C   UNL     1       4.745  51.339  21.748  0.00  0.00    +0.000 C 
ATOM     15  C   UNL     1       3.838  53.223  20.239  0.00  0.00    +0.000 C 
ATOM     16  C   UNL     1       2.662  52.425  21.050  0.00  0.00    +0.000 C 
ATOM     17  C   UNL     1       2.671  52.927  22.427  0.00  0.00    +0.000 C 
ATOM     18  C   UNL     1       3.691  53.089  23.167  0.00  0.00    +0.000 C 
ATOM     19  C   UNL     1       3.700  53.698  24.644  0.00  0.00    +0.000 C 
ATOM     20  C   UNL     1       2.143  53.109  24.970  0.00  0.00    +0.000 C 
ATOM     21  C   UNL     1       1.221  54.191  24.232  0.00  0.00    +0.000 C 
ATOM     22  C   UNL     1       2.038  53.668  26.567  0.00  0.00    +0.000 C 
ATOM     23  C   UNL     1       0.400  53.659  26.544  0.00  0.00    +0.000 C 
ATOM     24  C   UNL     1       2.034  55.257  26.387  0.00  0.00    +0.000 C 
ATOM     25  C   UNL     1       2.484  55.863  25.230  0.00  0.00    +0.000 C 
ATOM     26  C   UNL     1       3.407  55.250  24.287  0.00  0.00    +0.000 C 
ATOM     30  C   UNL     1       3.338  55.485  22.851  0.00  0.00    +0.000 C 
ATOM     31  C   UNL     1       4.652  54.982  22.232  0.00  0.00    +0.000 C 
ATOM     32  C   UNL     1       4.934  53.566  22.462  0.00  0.00    +0.000 C 
ATOM     33  C   UNL     1       6.051  53.127  23.321  0.00  0.00    +0.000 C 
ATOM     34  C   UNL     1       5.508  51.317  17.319  0.00  0.00    +0.000 C 
ATOM     35  C   UNL     1       5.582  49.963  17.849  0.00  0.00    +0.000 C 
ATOM     36  C   UNL     1       6.778  51.564  16.619  0.00  0.00    +0.000 C 
ENDROOT
BRANCH  26  27
ATOM     27  C   UNL     1       4.713  55.842  24.783  0.00  0.00    +0.000 C 
ATOM     28  O   UNL     1       5.323  55.351  25.796  0.00  0.00    +0.000 OA
ATOM     29  O   UNL     1       5.034  57.192  24.610  0.00  0.00    +0.000 OA
ENDBRANCH  26  27
BRANCH   5   4
ATOM      4  O   UNL     1       4.986  51.954  15.117  0.00  0.00    +0.000 OA
BRANCH   4   2
ATOM      1  C   UNL     1       4.728  50.400  13.258  0.00  0.00    +0.000 C 
ATOM      2  C   UNL     1       4.595  51.728  13.862  0.00  0.00    +0.000 C 
ATOM      3  O   UNL     1       4.324  52.684  13.115  0.00  0.00    +0.000 OA
ENDBRANCH   4   2
ENDBRANCH   5   4
TORSDOF 3
ENDMDL
MODEL 7
REMARK VINA RESULT:      -6.9     40.110     42.992
REMARK  Name = 
REMARK  3 active torsions:
REMARK  status: ('A' for Active; 'I' for Inactive)
REMARK    1  A    between atoms: C_2  and  O_4
REMARK    2  A    between atoms: O_4  and  C_5
REMARK    3  A    between atoms: C_26  and  C_27
REMARK                            x       y       z     vdW  Elec       q    Type
REMARK                         _______ _______ _______ _____ _____    ______ ____
ROOT
ATOM      5  C   UNL     1       6.566  41.379 -15.194  0.00  0.00    +0.000 C 
ATOM      6  C   UNL     1       7.604  40.126 -14.921  0.00  0.00    +0.000 C 
ATOM      7  C   UNL     1       6.748  38.977 -15.359  0.00  0.00    +0.000 C 
ATOM      8  C   UNL     1       6.569  39.127 -16.866  0.00  0.00    +0.000 C 
ATOM      9  C   UNL     1       5.247  39.290 -17.227  0.00  0.00    +0.000 C 
ATOM     10  C   UNL     1       7.651  40.259 -17.295  0.00  0.00    +0.000 C 
ATOM     11  C   UNL     1       7.081  40.372 -18.830  0.00  0.00    +0.000 C 
ATOM     12  C   UNL     1       7.938  39.223 -19.364  0.00  0.00    +0.000 C 
ATOM     13  C   UNL     1       7.186  38.022 -18.969  0.00  0.00    +0.000 C 
ATOM     14  C   UNL     1       5.806  38.100 -19.450  0.00  0.00    +0.000 C 
ATOM     15  C   UNL     1       7.297  37.764 -17.373  0.00  0.00    +0.000 C 
ATOM     16  C   UNL     1       5.933  36.862 -17.340  0.00  0.00    +0.000 C 
ATOM     17  C   UNL     1       6.150  35.718 -18.230  0.00  0.00    +0.000 C 
ATOM     18  C   UNL     1       6.631  35.754 -19.405  0.00  0.00    +0.000 C 
ATOM     19  C   UNL     1       6.926  34.496 -20.345  0.00  0.00    +0.000 C 
ATOM     20  C   UNL     1       5.653  33.604 -19.667  0.00  0.00    +0.000 C 
ATOM     21  C   UNL     1       6.307  33.086 -18.300  0.00  0.00    +0.000 C 
ATOM     22  C   UNL     1       5.833  32.219 -20.627  0.00  0.00    +0.000 C 
ATOM     23  C   UNL     1       5.089  31.263 -19.523  0.00  0.00    +0.000 C 
ATOM     24  C   UNL     1       7.254  31.650 -20.166  0.00  0.00    +0.000 C 
ATOM     25  C   UNL     1       8.179  32.437 -19.508  0.00  0.00    +0.000 C 
ATOM     26  C   UNL     1       8.213  33.891 -19.571  0.00  0.00    +0.000 C 
ATOM     30  C   UNL     1       8.625  34.719 -18.447  0.00  0.00    +0.000 C 
ATOM     31  C   UNL     1       8.879  36.138 -18.980  0.00  0.00    +0.000 C 
ATOM     32  C   UNL     1       7.726  36.764 -19.627  0.00  0.00    +0.000 C 
ATOM     33  C   UNL     1       7.705  37.038 -21.077  0.00  0.00    +0.000 C 
ATOM     34  C   UNL     1       6.861  41.560 -16.783  0.00  0.00    +0.000 C 
ATOM     35  C   UNL     1       5.619  41.833 -17.494  0.00  0.00    +0.000 C 
ATOM     36  C   UNL     1       7.766  42.683 -17.073  0.00  0.00    +0.000 C 
ENDROOT
BRANCH  26  27
ATOM     27  C   UNL     1       9.241  34.076 -20.673  0.00  0.00    +0.000 C 
ATOM     28  O   UNL     1       8.891  34.155 -21.902  0.00  0.00    +0.000 OA
ATOM     29  O   UNL     1      10.554  33.611 -20.554  0.00  0.00    +0.000 OA
ENDBRANCH  26  27
BRANCH   5   4
ATOM      4  O   UNL     1       7.546  42.463 -14.724  0.00  0.00    +0.000 OA
BRANCH   4   2
ATOM      1  C   UNL     1       7.856  44.526 -13.463  0.00  0.00    +0.000 C 
ATOM      2  C   UNL     1       7.410  43.135 -13.579  0.00  0.00    +0.000 C 
ATOM      3  O   UNL     1       7.114  42.528 -12.535  0.00  0.00    +0.000 OA
ENDBRANCH   4   2
ENDBRANCH   5   4
TORSDOF 3
ENDMDL
MODEL 8
REMARK VINA RESULT:      -6.8     38.548     41.164
REMARK  Name = 
REMARK  3 active torsions:
REMARK  status: ('A' for Active; 'I' for Inactive)
REMARK    1  A    between atoms: C_2  and  O_4
REMARK    2  A    between atoms: O_4  and  C_5
REMARK    3  A    between atoms: C_26  and  C_27
REMARK                            x       y       z     vdW  Elec       q    Type
REMARK                         _______ _______ _______ _____ _____    ______ ____
ROOT
ATOM      5  C   UNL     1       7.472  36.754 -18.906  0.00  0.00    +0.000 C 
ATOM      6  C   UNL     1       8.508  38.035 -19.006  0.00  0.00    +0.000 C 
ATOM      7  C   UNL     1       7.524  39.164 -19.040  0.00  0.00    +0.000 C 
ATOM      8  C   UNL     1       6.860  39.195 -17.668  0.00  0.00    +0.000 C 
ATOM      9  C   UNL     1       5.498  38.983 -17.736  0.00  0.00    +0.000 C 
ATOM     10  C   UNL     1       7.768  38.209 -16.752  0.00  0.00    +0.000 C 
ATOM     11  C   UNL     1       6.725  38.253 -15.487  0.00  0.00    +0.000 C 
ATOM     12  C   UNL     1       7.325  39.520 -14.875  0.00  0.00    +0.000 C 
ATOM     13  C   UNL     1       6.715  40.602 -15.663  0.00  0.00    +0.000 C 
ATOM     14  C   UNL     1       5.255  40.485 -15.649  0.00  0.00    +0.000 C 
ATOM     15  C   UNL     1       7.341  40.661 -17.155  0.00  0.00    +0.000 C 
ATOM     16  C   UNL     1       6.041  41.449 -17.760  0.00  0.00    +0.000 C 
ATOM     17  C   UNL     1       5.919  42.710 -17.023  0.00  0.00    +0.000 C 
ATOM     18  C   UNL     1       5.984  42.860 -15.763  0.00  0.00    +0.000 C 
ATOM     19  C   UNL     1       5.916  44.246 -14.972  0.00  0.00    +0.000 C 
ATOM     20  C   UNL     1       4.916  44.948 -16.148  0.00  0.00    +0.000 C 
ATOM     21  C   UNL     1       5.972  45.334 -17.289  0.00  0.00    +0.000 C 
ATOM     22  C   UNL     1       4.730  46.454 -15.392  0.00  0.00    +0.000 C 
ATOM     23  C   UNL     1       4.368  47.204 -16.804  0.00  0.00    +0.000 C 
ATOM     24  C   UNL     1       6.207  47.063 -15.445  0.00  0.00    +0.000 C 
ATOM     25  C   UNL     1       7.319  46.268 -15.646  0.00  0.00    +0.000 C 
ATOM     26  C   UNL     1       7.370  44.841 -15.365  0.00  0.00    +0.000 C 
ATOM     30  C   UNL     1       8.154  43.908 -16.163  0.00  0.00    +0.000 C 
ATOM     31  C   UNL     1       8.256  42.591 -15.376  0.00  0.00    +0.000 C 
ATOM     32  C   UNL     1       6.971  41.970 -15.055  0.00  0.00    +0.000 C 
ATOM     33  C   UNL     1       6.477  41.883 -13.667  0.00  0.00    +0.000 C 
ATOM     34  C   UNL     1       7.228  36.799 -17.299  0.00  0.00    +0.000 C 
ATOM     35  C   UNL     1       5.830  36.529 -16.998  0.00  0.00    +0.000 C 
ATOM     36  C   UNL     1       8.017  35.793 -16.571  0.00  0.00    +0.000 C 
ENDROOT
BRANCH  26  27
ATOM     27  C   UNL     1       7.979  44.874 -13.975  0.00  0.00    +0.000 C 
ATOM     28  O   UNL     1       7.253  45.051 -12.935  0.00  0.00    +0.000 OA
ATOM     29  O   UNL     1       9.294  45.291 -13.746  0.00  0.00    +0.000 OA
ENDBRANCH  26  27
BRANCH   5   4
ATOM      4  O   UNL     1       8.582  35.693 -18.871  0.00  0.00    +0.000 OA
BRANCH   4   2
ATOM      1  C   UNL     1       8.502  33.404 -19.702  0.00  0.00    +0.000 C 
ATOM      2  C   UNL     1       8.808  34.827 -19.860  0.00  0.00    +0.000 C 
ATOM      3  O   UNL     1       9.486  35.173 -20.844  0.00  0.00    +0.000 OA
ENDBRANCH   4   2
ENDBRANCH   5   4
TORSDOF 3
ENDMDL
MODEL 9
REMARK VINA RESULT:      -6.8     27.268     30.017
REMARK  Name = 
REMARK  3 active torsions:
REMARK  status: ('A' for Active; 'I' for Inactive)
REMARK    1  A    between atoms: C_2  and  O_4
REMARK    2  A    between atoms: O_4  and  C_5
REMARK    3  A    between atoms: C_26  and  C_27
REMARK                            x       y       z     vdW  Elec       q    Type
REMARK                         _______ _______ _______ _____ _____    ______ ____
ROOT
ATOM      5  C   UNL     1       5.616  48.469   1.205  0.00  0.00    +0.000 C 
ATOM      6  C   UNL     1       7.170  49.011   1.324  0.00  0.00    +0.000 C 
ATOM      7  C   UNL     1       7.314  49.685  -0.006  0.00  0.00    +0.000 C 
ATOM      8  C   UNL     1       6.385  50.893   0.023  0.00  0.00    +0.000 C 
ATOM      9  C   UNL     1       5.405  50.828  -0.945  0.00  0.00    +0.000 C 
ATOM     10  C   UNL     1       5.951  51.036   1.581  0.00  0.00    +0.000 C 
ATOM     11  C   UNL     1       4.830  52.194   1.270  0.00  0.00    +0.000 C 
ATOM     12  C   UNL     1       5.825  53.353   1.349  0.00  0.00    +0.000 C 
ATOM     13  C   UNL     1       6.464  53.346   0.024  0.00  0.00    +0.000 C 
ATOM     14  C   UNL     1       5.453  53.410  -1.033  0.00  0.00    +0.000 C 
ATOM     15  C   UNL     1       7.476  52.090  -0.128  0.00  0.00    +0.000 C 
ATOM     16  C   UNL     1       7.410  52.127  -1.762  0.00  0.00    +0.000 C 
ATOM     17  C   UNL     1       7.894  53.445  -2.184  0.00  0.00    +0.000 C 
ATOM     18  C   UNL     1       7.551  54.568  -1.699  0.00  0.00    +0.000 C 
ATOM     19  C   UNL     1       8.131  55.996  -2.119  0.00  0.00    +0.000 C 
ATOM     20  C   UNL     1       8.418  55.488  -3.711  0.00  0.00    +0.000 C 
ATOM     21  C   UNL     1       9.786  54.670  -3.553  0.00  0.00    +0.000 C 
ATOM     22  C   UNL     1       9.017  56.961  -4.296  0.00  0.00    +0.000 C 
ATOM     23  C   UNL     1       9.833  56.233  -5.517  0.00  0.00    +0.000 C 
ATOM     24  C   UNL     1      10.384  57.136  -3.486  0.00  0.00    +0.000 C 
ATOM     25  C   UNL     1      10.636  56.442  -2.318  0.00  0.00    +0.000 C 
ATOM     26  C   UNL     1       9.604  55.882  -1.456  0.00  0.00    +0.000 C 
ATOM     30  C   UNL     1       9.784  54.642  -0.714  0.00  0.00    +0.000 C 
ATOM     31  C   UNL     1       8.665  54.560   0.336  0.00  0.00    +0.000 C 
ATOM     32  C   UNL     1       7.309  54.586  -0.212  0.00  0.00    +0.000 C 
ATOM     33  C   UNL     1       6.403  55.729   0.013  0.00  0.00    +0.000 C 
ATOM     34  C   UNL     1       4.873  49.847   1.645  0.00  0.00    +0.000 C 
ATOM     35  C   UNL     1       3.688  50.059   0.827  0.00  0.00    +0.000 C 
ATOM     36  C   UNL     1       4.420  49.832   3.045  0.00  0.00    +0.000 C 
ENDROOT
BRANCH  26  27
ATOM     27  C   UNL     1       9.479  57.005  -0.443  0.00  0.00    +0.000 C 
ATOM     28  O   UNL     1       8.709  58.007  -0.652  0.00  0.00    +0.000 OA
ATOM     29  O   UNL     1      10.520  57.346   0.426  0.00  0.00    +0.000 OA
ENDBRANCH  26  27
BRANCH   5   4
ATOM      4  O   UNL     1       5.597  47.824   2.598  0.00  0.00    +0.000 OA
BRANCH   4   2
ATOM      1  C   UNL     1       4.592  45.769   1.759  0.00  0.00    +0.000 C 
ATOM      2  C   UNL     1       5.169  46.582   2.832  0.00  0.00    +0.000 C 
ATOM      3  O   UNL     1       5.044  46.179   4.002  0.00  0.00    +0.000 OA
ENDBRANCH   4   2
ENDBRANCH   5   4
TORSDOF 3
ENDMDL
MODEL 10
REMARK VINA RESULT:      -6.7     39.975     43.304
REMARK  Name = 
REMARK  3 active torsions:
REMARK  status: ('A' for Active; 'I' for Inactive)
REMARK    1  A    between atoms: C_2  and  O_4
REMARK    2  A    between atoms: O_4  and  C_5
REMARK    3  A    between atoms: C_26  and  C_27
REMARK                            x       y       z     vdW  Elec       q    Type
REMARK                         _______ _______ _______ _____ _____    ______ ____
ROOT
ATOM      5  C   UNL     1       9.975  44.408 -23.595  0.00  0.00    +0.000 C 
ATOM      6  C   UNL     1      10.741  43.674 -22.332  0.00  0.00    +0.000 C 
ATOM      7  C   UNL     1      10.414  44.637 -21.233  0.00  0.00    +0.000 C 
ATOM      8  C   UNL     1       8.910  44.529 -21.004  0.00  0.00    +0.000 C 
ATOM      9  C   UNL     1       8.254  45.721 -21.240  0.00  0.00    +0.000 C 
ATOM     10  C   UNL     1       8.465  43.205 -21.831  0.00  0.00    +0.000 C 
ATOM     11  C   UNL     1       6.862  43.479 -21.610  0.00  0.00    +0.000 C 
ATOM     12  C   UNL     1       6.800  42.765 -20.258  0.00  0.00    +0.000 C 
ATOM     13  C   UNL     1       7.298  43.777 -19.314  0.00  0.00    +0.000 C 
ATOM     14  C   UNL     1       6.534  45.019 -19.444  0.00  0.00    +0.000 C 
ATOM     15  C   UNL     1       8.896  43.985 -19.472  0.00  0.00    +0.000 C 
ATOM     16  C   UNL     1       8.854  45.475 -18.799  0.00  0.00    +0.000 C 
ATOM     17  C   UNL     1       8.318  45.321 -17.443  0.00  0.00    +0.000 C 
ATOM     18  C   UNL     1       7.294  44.651 -17.105  0.00  0.00    +0.000 C 
ATOM     19  C   UNL     1       6.754  44.433 -15.617  0.00  0.00    +0.000 C 
ATOM     20  C   UNL     1       7.340  45.942 -15.111  0.00  0.00    +0.000 C 
ATOM     21  C   UNL     1       8.896  45.632 -14.888  0.00  0.00    +0.000 C 
ATOM     22  C   UNL     1       6.787  45.856 -13.511  0.00  0.00    +0.000 C 
ATOM     23  C   UNL     1       7.903  46.935 -12.986  0.00  0.00    +0.000 C 
ATOM     24  C   UNL     1       7.654  44.659 -12.900  0.00  0.00    +0.000 C 
ATOM     25  C   UNL     1       8.289  43.731 -13.703  0.00  0.00    +0.000 C 
ATOM     26  C   UNL     1       7.898  43.425 -15.071  0.00  0.00    +0.000 C 
ATOM     30  C   UNL     1       8.860  43.067 -16.104  0.00  0.00    +0.000 C 
ATOM     31  C   UNL     1       8.077  42.474 -17.287  0.00  0.00    +0.000 C 
ATOM     32  C   UNL     1       7.077  43.369 -17.868  0.00  0.00    +0.000 C 
ATOM     33  C   UNL     1       5.631  43.097 -17.752  0.00  0.00    +0.000 C 
ATOM     34  C   UNL     1       8.485  43.822 -23.313  0.00  0.00    +0.000 C 
ATOM     35  C   UNL     1       7.488  44.857 -23.551  0.00  0.00    +0.000 C 
ATOM     36  C   UNL     1       8.137  42.694 -24.190  0.00  0.00    +0.000 C 
ENDROOT
BRANCH  26  27
ATOM     27  C   UNL     1       7.023  42.211 -14.823  0.00  0.00    +0.000 C 
ATOM     28  O   UNL     1       5.809  42.334 -14.432  0.00  0.00    +0.000 OA
ATOM     29  O   UNL     1       7.551  40.976 -14.435  0.00  0.00    +0.000 OA
ENDBRANCH  26  27
BRANCH   5   4
ATOM      4  O   UNL     1      10.374  43.342 -24.626  0.00  0.00    +0.000 OA
BRANCH   4   2
ATOM      1  C   UNL     1      12.267  44.437 -25.703  0.00  0.00    +0.000 C 
ATOM      2  C   UNL     1      11.592  43.254 -25.163  0.00  0.00    +0.000 C 
ATOM      3  O   UNL     1      12.078  42.137 -25.419  0.00  0.00    +0.000 OA
ENDBRANCH   4   2
ENDBRANCH   5   4
TORSDOF 3
ENDMDL
