
 OpenBabel05042123343D

 27 29  0  0  0  0  0  0  0  0999 V2000
    6.2326    0.9071    2.5135 C   0  0  0  0  0  0  0  0  0  0  0  0
    5.1832    1.2558    1.6516 O   0  0  0  0  0  0  0  0  0  0  0  0
    4.2238    0.3475    1.1912 C   0  0  0  0  0  0  0  0  0  0  0  0
    3.6650   -0.6181    1.9931 C   0  0  0  0  0  0  0  0  0  0  0  0
    2.4738   -1.2256    1.6133 C   0  0  0  0  0  0  0  0  0  0  0  0
    1.6791   -0.7220    0.5915 C   0  0  0  0  0  0  0  0  0  0  0  0
    0.2311   -0.6611    0.8336 C   0  0  0  0  0  0  0  0  0  0  0  0
   -0.6624   -1.1740    0.0216 C   0  0  0  0  0  0  0  0  0  0  0  0
   -0.3623   -1.8859   -1.2163 C   0  0  0  0  0  0  0  0  0  0  0  0
    0.7072   -2.5058   -1.3919 O   0  0  0  0  0  0  0  0  0  0  0  0
   -1.5983   -1.9375   -1.9243 N   0  0  0  0  0  0  0  0  0  0  0  0
   -2.5752   -1.1173   -1.2732 C   0  0  0  0  0  0  0  0  0  0  0  0
   -3.7779   -0.5529   -1.6802 C   0  0  0  0  0  0  0  0  0  0  0  0
   -4.4253    0.2883   -0.7841 C   0  0  0  0  0  0  0  0  0  0  0  0
   -5.1907    1.3668   -1.1807 O   0  0  0  0  0  0  0  0  0  0  0  0
   -4.9544    2.6732   -0.6875 C   0  0  0  0  0  0  0  0  0  0  0  0
   -4.1468    0.0889    0.5607 C   0  0  0  0  0  0  0  0  0  0  0  0
   -4.9141    0.8296    1.4611 O   0  0  0  0  0  0  0  0  0  0  0  0
   -5.6375    0.2581    2.5229 C   0  0  0  0  0  0  0  0  0  0  0  0
   -2.9846   -0.5021    0.9882 C   0  0  0  0  0  0  0  0  0  0  0  0
   -2.1145   -0.9986    0.0321 C   0  0  0  0  0  0  0  0  0  0  0  0
    2.2014    0.3561   -0.1061 C   0  0  0  0  0  0  0  0  0  0  0  0
    1.5421    0.7769   -1.2654 O   0  0  0  0  0  0  0  0  0  0  0  0
    2.3142    0.6963   -2.4613 C   0  0  0  0  0  0  0  0  0  0  0  0
    3.5201    0.7438    0.0643 C   0  0  0  0  0  0  0  0  0  0  0  0
    4.0387    1.7348   -0.7682 O   0  0  0  0  0  0  0  0  0  0  0  0
    5.3317    1.5777   -1.2995 C   0  0  0  0  0  0  0  0  0  0  0  0
  1  2  1  0  0  0  0
  2  3  1  0  0  0  0
  3  4  2  0  0  0  0
  4  5  1  0  0  0  0
  5  6  2  0  0  0  0
  6  7  1  0  0  0  0
  6 22  1  0  0  0  0
  7  8  2  0  0  0  0
  8  9  1  0  0  0  0
  9 10  2  0  0  0  0
  9 11  1  0  0  0  0
 11 12  1  0  0  0  0
 12 13  2  0  0  0  0
 13 14  1  0  0  0  0
 14 15  1  0  0  0  0
 14 17  2  0  0  0  0
 15 16  1  0  0  0  0
 17 18  1  0  0  0  0
 17 20  1  0  0  0  0
 18 19  1  0  0  0  0
 20 21  2  0  0  0  0
 21  8  1  0  0  0  0
 21 12  1  0  0  0  0
 22 23  1  0  0  0  0
 22 25  2  0  0  0  0
 23 24  1  0  0  0  0
 25 26  1  0  0  0  0
 25  3  1  0  0  0  0
 26 27  1  0  0  0  0
M  END
>  <zinc_id>
ZINC000015109841

>  <smiles>
COc1cc2c(cc1OC)/C(=C/c1ccc(OC)c(OC)c1OC)C(=O)N2

$$$$
