
 OpenBabel05042123343D

 24 26  0  0  0  0  0  0  0  0999 V2000
   -5.2967   -1.8171   -0.6565 C   0  0  0  0  0  0  0  0  0  0  0  0
   -4.0676   -1.8137   -1.3383 O   0  0  0  0  0  0  0  0  0  0  0  0
   -3.0402   -1.0081   -0.9031 C   0  0  0  0  0  0  0  0  0  0  0  0
   -3.0839   -0.2703    0.2734 C   0  0  0  0  0  0  0  0  0  0  0  0
   -2.1875    0.7866    0.3873 C   0  0  0  0  0  0  0  0  0  0  0  0
   -2.5827    1.9683    1.0261 O   0  0  0  0  0  0  0  0  0  0  0  0
   -3.2976    1.9868    2.2328 C   0  0  0  0  0  0  0  0  0  0  0  0
   -0.9345    0.6598   -0.2055 C   0  0  0  0  0  0  0  0  0  0  0  0
   -0.1152    1.8800   -0.1462 C   0  0  0  0  0  0  0  0  0  0  0  0
    0.7387    1.9079    0.8804 C   0  0  0  0  0  0  0  0  0  0  0  0
    1.0976    3.1801    1.4677 C   0  0  0  0  0  0  0  0  0  0  0  0
    1.3521    4.1032    2.1343 N   0  0  0  0  0  0  0  0  0  0  0  0
    1.7034    0.8279    0.8809 C   0  0  0  0  0  0  0  0  0  0  0  0
    3.0427    1.1886    0.8004 C   0  0  0  0  0  0  0  0  0  0  0  0
    3.9729    0.2471    0.4170 C   0  0  0  0  0  0  0  0  0  0  0  0
    3.5693   -1.0331    0.0548 C   0  0  0  0  0  0  0  0  0  0  0  0
    2.2663   -1.4580    0.2805 C   0  0  0  0  0  0  0  0  0  0  0  0
    1.4210   -0.5051    0.8389 C   0  0  0  0  0  0  0  0  0  0  0  0
    2.0762   -2.5127   -0.6196 O   0  0  0  0  0  0  0  0  0  0  0  0
    3.3372   -2.9526   -1.0920 C   0  0  0  0  0  0  0  0  0  0  0  0
    4.1677   -1.8342   -0.9228 O   0  0  0  0  0  0  0  0  0  0  0  0
   -0.9236   -0.0155   -1.4226 C   0  0  0  0  0  0  0  0  0  0  0  0
   -1.8137   -1.0741   -1.5514 C   0  0  0  0  0  0  0  0  0  0  0  0
   -1.4018   -2.4417   -2.8163 Br  0  0  0  0  0  0  0  0  0  0  0  0
  1  2  1  0  0  0  0
  2  3  1  0  0  0  0
  3  4  2  0  0  0  0
  4  5  1  0  0  0  0
  5  6  1  0  0  0  0
  5  8  2  0  0  0  0
  6  7  1  0  0  0  0
  8  9  1  0  0  0  0
  8 22  1  0  0  0  0
  9 10  2  0  0  0  0
 10 11  1  0  0  0  0
 10 13  1  0  0  0  0
 11 12  3  0  0  0  0
 13 14  2  0  0  0  0
 14 15  1  0  0  0  0
 15 16  2  0  0  0  0
 16 17  1  0  0  0  0
 17 18  2  0  0  0  0
 17 19  1  0  0  0  0
 18 13  1  0  0  0  0
 19 20  1  0  0  0  0
 20 21  1  0  0  0  0
 21 16  1  0  0  0  0
 22 23  2  0  0  0  0
 23 24  1  0  0  0  0
 23  3  1  0  0  0  0
M  END
>  <zinc_id>
ZINC000016362190

>  <smiles>
COc1cc(OC)c(/C=C(/C#N)c2ccc3c(c2)OCO3)cc1Br

$$$$
