
 OpenBabel05042123343D

 31 35  0  0  0  0  0  0  0  0999 V2000
    6.0150    2.1040    1.8270 C   0  0  0  0  0  0  0  0  0  0  0  0
    5.3184    2.3057    0.7484 O   0  0  0  0  0  0  0  0  0  0  0  0
    4.0696    1.7447    0.6025 C   0  0  0  0  0  0  0  0  0  0  0  0
    3.0266    2.3143    1.3145 C   0  0  0  0  0  0  0  0  0  0  0  0
    1.8193    1.6433    1.4291 C   0  0  0  0  0  0  0  0  0  0  0  0
    1.6143    0.6000    0.5780 C   0  0  0  0  0  0  0  0  0  0  0  0
    2.5561    0.0972   -0.2941 C   0  0  0  0  0  0  0  0  0  0  0  0
    3.8220    0.6499   -0.2143 C   0  0  0  0  0  0  0  0  0  0  0  0
    4.8989   -0.0773   -0.6841 O   0  0  0  0  0  0  0  0  0  0  0  0
    5.2259   -1.2943   -0.0208 C   0  0  0  0  0  0  0  0  0  0  0  0
    1.9510   -0.9912   -1.0729 C   0  0  0  0  0  0  0  0  0  0  0  0
    2.6192   -1.9238   -1.5656 O   0  0  0  0  0  0  0  0  0  0  0  0
    0.5415   -0.7947   -0.9621 N   0  0  0  0  0  0  0  0  0  0  0  0
    0.4075   -0.1947    0.3412 C   0  0  0  0  0  0  0  0  0  0  0  0
   -0.6712   -0.0838    1.1210 C   0  0  0  0  0  0  0  0  0  0  0  0
   -2.0184   -0.4456    0.6520 C   0  0  0  0  0  0  0  0  0  0  0  0
   -2.4594   -0.8435   -0.6056 C   0  0  0  0  0  0  0  0  0  0  0  0
   -3.6581   -0.3340   -1.0885 C   0  0  0  0  0  0  0  0  0  0  0  0
   -4.4369    0.5590   -0.3630 C   0  0  0  0  0  0  0  0  0  0  0  0
   -4.1965    0.5783    1.0053 C   0  0  0  0  0  0  0  0  0  0  0  0
   -3.0040    0.0557    1.4914 C   0  0  0  0  0  0  0  0  0  0  0  0
   -2.7109    0.0875    2.8369 O   0  0  0  0  0  0  0  0  0  0  0  0
   -3.0471   -1.0775    3.5873 C   0  0  0  0  0  0  0  0  0  0  0  0
   -5.0654    1.5497    1.5121 O   0  0  0  0  0  0  0  0  0  0  0  0
   -5.4065    2.4767    0.4848 C   0  0  0  0  0  0  0  0  0  0  0  0
   -5.1798    1.7026   -0.6735 O   0  0  0  0  0  0  0  0  0  0  0  0
   -1.6258   -1.1917   -1.7997 C   0  0  0  0  0  0  0  0  0  0  0  0
   -0.3760   -2.0979   -1.1555 C   0  0  1  0  0  0  0  0  0  0  0  0
    0.2514   -2.3975   -2.6003 N   0  0  0  0  0  0  0  0  0  0  0  0
   -0.4518   -3.5254   -3.1009 C   0  0  0  0  0  0  0  0  0  0  0  0
    0.1714   -1.1956   -3.3303 C   0  0  0  0  0  0  0  0  0  0  0  0
  1  2  1  0  0  0  0
  2  3  1  0  0  0  0
  3  4  2  0  0  0  0
  4  5  1  0  0  0  0
  5  6  2  0  0  0  0
  6  7  1  0  0  0  0
  7  8  2  0  0  0  0
  7 11  1  0  0  0  0
  8  9  1  0  0  0  0
  8  3  1  0  0  0  0
  9 10  1  0  0  0  0
 11 12  2  0  0  0  0
 11 13  1  0  0  0  0
 13 14  1  0  0  0  0
 14 15  2  0  0  0  0
 14  6  1  0  0  0  0
 15 16  1  0  0  0  0
 16 17  2  0  0  0  0
 17 18  1  0  0  0  0
 17 27  1  0  0  0  0
 18 19  2  0  0  0  0
 19 20  1  0  0  0  0
 20 21  2  0  0  0  0
 20 24  1  0  0  0  0
 21 22  1  0  0  0  0
 21 16  1  0  0  0  0
 22 23  1  0  0  0  0
 24 25  1  0  0  0  0
 25 26  1  0  0  0  0
 26 19  1  0  0  0  0
 27 28  1  0  0  0  0
 28 29  1  6  0  0  0
 28 13  1  0  0  0  0
 29 30  1  0  0  0  0
 29 31  1  0  0  0  0
M  END
>  <zinc_id>
ZINC000031852387

>  <smiles>
COc1ccc2c(c1OC)C(=O)N1C2=Cc2c(cc3c(c2OC)OCO3)C[C@H]1N(C)C

$$$$
