
 OpenBabel05042123343D

 24 26  0  0  0  0  0  0  0  0999 V2000
   -4.7475    0.9847   -2.6074 C   0  0  0  0  0  0  0  0  0  0  0  0
   -3.6760    1.7357   -2.0912 O   0  0  0  0  0  0  0  0  0  0  0  0
   -2.7542    1.1784   -1.1990 C   0  0  0  0  0  0  0  0  0  0  0  0
   -1.7144    0.3654   -1.6317 C   0  0  0  0  0  0  0  0  0  0  0  0
   -1.2400   -0.6393   -0.7970 C   0  0  0  0  0  0  0  0  0  0  0  0
   -0.0426   -1.3120   -1.2447 C   0  0  0  0  0  0  0  0  0  0  0  0
    0.7101   -2.1104   -0.5316 C   0  0  0  0  0  0  0  0  0  0  0  0
    2.1494   -1.8968   -0.3200 C   0  0  0  0  0  0  0  0  0  0  0  0
    2.6741   -1.8659    0.9670 C   0  0  0  0  0  0  0  0  0  0  0  0
    3.6296   -0.9249    1.3240 C   0  0  0  0  0  0  0  0  0  0  0  0
    4.1407   -0.0347    0.3920 C   0  0  0  0  0  0  0  0  0  0  0  0
    4.6295    1.1771    0.8285 O   0  0  0  0  0  0  0  0  0  0  0  0
    4.8640    2.2877   -0.0139 C   0  0  0  0  0  0  0  0  0  0  0  0
    3.9009   -0.3339   -0.9427 C   0  0  0  0  0  0  0  0  0  0  0  0
    4.3792    0.5689   -1.8968 O   0  0  0  0  0  0  0  0  0  0  0  0
    2.9351   -1.2744   -1.2828 C   0  0  0  0  0  0  0  0  0  0  0  0
   -1.7782   -0.7731    0.4768 C   0  0  0  0  0  0  0  0  0  0  0  0
   -1.0267   -1.5385    1.3715 O   0  0  0  0  0  0  0  0  0  0  0  0
   -0.7506   -1.1440    2.6923 C   0  0  0  0  0  0  0  0  0  0  0  0
   -2.6897    0.1291    0.9639 C   0  0  0  0  0  0  0  0  0  0  0  0
   -3.1034    1.1368    0.1330 C   0  0  0  0  0  0  0  0  0  0  0  0
   -3.7950    2.0649    0.9029 O   0  0  0  0  0  0  0  0  0  0  0  0
   -3.5706    1.7844    2.2743 C   0  0  0  0  0  0  0  0  0  0  0  0
   -3.1238    0.4348    2.2327 O   0  0  0  0  0  0  0  0  0  0  0  0
  1  2  1  0  0  0  0
  2  3  1  0  0  0  0
  3  4  2  0  0  0  0
  4  5  1  0  0  0  0
  5  6  1  0  0  0  0
  5 17  2  0  0  0  0
  6  7  2  0  0  0  0
  7  8  1  0  0  0  0
  8  9  2  0  0  0  0
  9 10  1  0  0  0  0
 10 11  2  0  0  0  0
 11 12  1  0  0  0  0
 11 14  1  0  0  0  0
 12 13  1  0  0  0  0
 14 15  1  0  0  0  0
 14 16  2  0  0  0  0
 16  8  1  0  0  0  0
 17 18  1  0  0  0  0
 17 20  1  0  0  0  0
 18 19  1  0  0  0  0
 20 21  2  0  0  0  0
 21 22  1  0  0  0  0
 21  3  1  0  0  0  0
 22 23  1  0  0  0  0
 23 24  1  0  0  0  0
 24 20  1  0  0  0  0
M  END
>  <zinc_id>
ZINC000035326369

>  <smiles>
COc1ccc(/C=C/c2cc(OC)c3c(c2OC)OCO3)cc1O

$$$$
