
 OpenBabel05042123343D

 18 19  0  0  0  0  0  0  0  0999 V2000
    5.6041   -0.1492    1.1926 O   0  0  0  0  0  0  0  0  0  0  0  0
    4.3183    0.0309    0.6968 C   0  0  0  0  0  0  0  0  0  0  0  0
    3.2970    0.3532    1.5772 C   0  0  0  0  0  0  0  0  0  0  0  0
    2.0736    0.7597    1.0932 C   0  0  0  0  0  0  0  0  0  0  0  0
    1.7310    0.6011   -0.2288 C   0  0  0  0  0  0  0  0  0  0  0  0
    0.3611    0.6416   -0.6983 C   0  0  0  0  0  0  0  0  0  0  0  0
   -0.3648   -0.4126   -0.9907 C   0  0  0  0  0  0  0  0  0  0  0  0
   -1.7933   -0.4107   -0.6579 C   0  0  0  0  0  0  0  0  0  0  0  0
   -2.6102    0.6762   -0.9197 C   0  0  0  0  0  0  0  0  0  0  0  0
   -3.7088    0.9618   -0.1217 C   0  0  0  0  0  0  0  0  0  0  0  0
   -4.0928    2.2689    0.1813 O   0  0  0  0  0  0  0  0  0  0  0  0
   -4.1618   -0.0871    0.6688 C   0  0  0  0  0  0  0  0  0  0  0  0
   -3.5212   -1.2974    0.6840 C   0  0  0  0  0  0  0  0  0  0  0  0
   -3.9299   -2.2707    1.5965 O   0  0  0  0  0  0  0  0  0  0  0  0
   -2.3125   -1.4852    0.0314 C   0  0  0  0  0  0  0  0  0  0  0  0
    2.7284    0.1910   -1.0912 C   0  0  0  0  0  0  0  0  0  0  0  0
    2.4142   -0.1526   -2.3999 O   0  0  0  0  0  0  0  0  0  0  0  0
    3.9675   -0.2190   -0.6135 C   0  0  0  0  0  0  0  0  0  0  0  0
  1  2  1  0  0  0  0
  2  3  2  0  0  0  0
  3  4  1  0  0  0  0
  4  5  2  0  0  0  0
  5  6  1  0  0  0  0
  5 16  1  0  0  0  0
  6  7  2  0  0  0  0
  7  8  1  0  0  0  0
  8  9  2  0  0  0  0
  9 10  1  0  0  0  0
 10 11  1  0  0  0  0
 10 12  2  0  0  0  0
 12 13  1  0  0  0  0
 13 14  1  0  0  0  0
 13 15  2  0  0  0  0
 15  8  1  0  0  0  0
 16 17  1  0  0  0  0
 16 18  2  0  0  0  0
 18  2  1  0  0  0  0
M  END
>  <zinc_id>
ZINC000000899161

>  <smiles>
Oc1cc(O)cc(/C=C/c2ccc(O)cc2O)c1

$$$$
