
 OpenBabel05042123343D

 27 29  0  0  0  0  0  0  0  0999 V2000
   -6.3635    1.6721    0.5801 C   0  0  0  0  0  0  0  0  0  0  0  0
   -6.0279    0.5486   -0.2214 O   0  0  0  0  0  0  0  0  0  0  0  0
   -4.6872    0.1920   -0.3128 C   0  0  0  0  0  0  0  0  0  0  0  0
   -3.9619    0.3316   -1.4890 C   0  0  0  0  0  0  0  0  0  0  0  0
   -2.5870    0.1357   -1.4406 C   0  0  0  0  0  0  0  0  0  0  0  0
   -1.9998    0.0052   -0.1865 C   0  0  0  0  0  0  0  0  0  0  0  0
   -2.7467   -0.3720    0.9226 C   0  0  0  0  0  0  0  0  0  0  0  0
   -4.1163   -0.5118    0.7397 C   0  0  0  0  0  0  0  0  0  0  0  0
   -4.8975   -1.3201    1.5678 O   0  0  0  0  0  0  0  0  0  0  0  0
   -4.8936   -2.7372    1.4737 C   0  0  0  0  0  0  0  0  0  0  0  0
   -0.5834    0.3133   -0.3964 C   0  0  0  0  0  0  0  0  0  0  0  0
    0.2726    0.6886    0.5331 C   0  0  0  0  0  0  0  0  0  0  0  0
    1.6875    0.3173    0.4015 C   0  0  0  0  0  0  0  0  0  0  0  0
    2.6062    1.1682   -0.2038 C   0  0  0  0  0  0  0  0  0  0  0  0
    3.9562    0.8632   -0.1855 C   0  0  0  0  0  0  0  0  0  0  0  0
    4.9356    1.7554   -0.6067 O   0  0  0  0  0  0  0  0  0  0  0  0
    6.0872    2.0075    0.1952 C   0  0  0  0  0  0  0  0  0  0  0  0
    4.3881   -0.1633    0.6413 C   0  0  0  0  0  0  0  0  0  0  0  0
    5.6073   -0.7564    0.3200 O   0  0  0  0  0  0  0  0  0  0  0  0
    5.6641   -1.8634   -0.5550 C   0  0  0  0  0  0  0  0  0  0  0  0
    3.4591   -0.9477    1.3133 C   0  0  0  0  0  0  0  0  0  0  0  0
    2.1913   -0.4046    1.4781 C   0  0  0  0  0  0  0  0  0  0  0  0
    1.4245   -0.6737    2.6149 O   0  0  0  0  0  0  0  0  0  0  0  0
    1.6042    0.1724    3.7364 C   0  0  0  0  0  0  0  0  0  0  0  0
   -0.2888    0.0021   -1.7929 C   0  0  0  0  0  0  0  0  0  0  0  0
    0.8414   -0.3295   -2.2338 O   0  0  0  0  0  0  0  0  0  0  0  0
   -1.5718   -0.0934   -2.4216 N   0  0  0  0  0  0  0  0  0  0  0  0
  1  2  1  0  0  0  0
  2  3  1  0  0  0  0
  3  4  2  0  0  0  0
  4  5  1  0  0  0  0
  5  6  2  0  0  0  0
  6  7  1  0  0  0  0
  6 11  1  0  0  0  0
  7  8  2  0  0  0  0
  8  9  1  0  0  0  0
  8  3  1  0  0  0  0
  9 10  1  0  0  0  0
 11 12  2  0  0  0  0
 11 25  1  0  0  0  0
 12 13  1  0  0  0  0
 13 14  2  0  0  0  0
 14 15  1  0  0  0  0
 15 16  1  0  0  0  0
 15 18  2  0  0  0  0
 16 17  1  0  0  0  0
 18 19  1  0  0  0  0
 18 21  1  0  0  0  0
 19 20  1  0  0  0  0
 21 22  2  0  0  0  0
 22 23  1  0  0  0  0
 22 13  1  0  0  0  0
 23 24  1  0  0  0  0
 25 26  2  0  0  0  0
 25 27  1  0  0  0  0
 27  5  1  0  0  0  0
M  END
>  <zinc_id>
ZINC000036559204

>  <smiles>
COc1cc(OC)c(OC)cc1/C=C1\C(=O)Nc2cc(OC)c(OC)cc21

$$$$
