
 OpenBabel05042123343D

 40 43  0  0  0  0  0  0  0  0999 V2000
    9.4738   -0.1715   -0.6684 O   0  0  0  0  0  0  0  0  0  0  0  0
    8.9382   -0.2090   -1.0950 C   0  0  0  0  0  0  0  0  0  0  0  0
    7.6582    0.0079   -0.0132 C   0  0  1  0  0  0  0  0  0  0  0  0
    7.1807    1.1864   -0.7806 O   0  0  0  0  0  0  0  0  0  0  0  0
    5.6768    1.4443   -0.7182 C   0  0  1  0  0  0  0  0  0  0  0  0
    5.1915    0.3486   -1.7800 O   0  0  0  0  0  0  0  0  0  0  0  0
    3.9353    0.8046   -2.2112 C   0  0  0  0  0  0  0  0  0  0  0  0
    3.1732    0.1073   -3.1426 C   0  0  0  0  0  0  0  0  0  0  0  0
    1.8959   -0.3330   -2.7929 C   0  0  0  0  0  0  0  0  0  0  0  0
    1.2365    0.1402   -1.6632 C   0  0  0  0  0  0  0  0  0  0  0  0
    0.4679   -0.7389   -0.7713 C   0  0  0  0  0  0  0  0  0  0  0  0
   -0.8157   -0.6757   -0.5646 C   0  0  0  0  0  0  0  0  0  0  0  0
   -1.4633   -0.4295    0.7161 C   0  0  0  0  0  0  0  0  0  0  0  0
   -1.2886   -1.2207    1.8388 C   0  0  0  0  0  0  0  0  0  0  0  0
   -2.0920   -1.0851    2.9661 C   0  0  0  0  0  0  0  0  0  0  0  0
   -2.1000   -2.0409    3.9857 O   0  0  0  0  0  0  0  0  0  0  0  0
   -2.9950   -0.0311    2.9246 C   0  0  0  0  0  0  0  0  0  0  0  0
   -3.3836    0.5648    1.7439 C   0  0  0  0  0  0  0  0  0  0  0  0
   -4.6224    1.1914    1.7193 O   0  0  0  0  0  0  0  0  0  0  0  0
   -5.2745    0.8404    0.3107 C   0  0  2  0  0  0  0  0  0  0  0  0
   -6.6700    1.3285    0.7517 O   0  0  0  0  0  0  0  0  0  0  0  0
   -6.8917    0.6763   -0.6218 C   0  0  2  0  0  0  0  0  0  0  0  0
   -8.0663    1.8127   -0.9915 C   0  0  0  0  0  0  0  0  0  0  0  0
   -7.2766    2.9733   -1.0391 O   0  0  0  0  0  0  0  0  0  0  0  0
   -8.0680   -0.3138    0.1654 C   0  0  1  0  0  0  0  0  0  0  0  0
   -7.9042   -1.5085   -0.7667 O   0  0  0  0  0  0  0  0  0  0  0  0
   -7.0511   -1.0078    1.3921 C   0  0  2  0  0  0  0  0  0  0  0  0
   -7.0038    0.2286    2.3021 O   0  0  0  0  0  0  0  0  0  0  0  0
   -5.4413   -0.8532    0.7734 C   0  0  1  0  0  0  0  0  0  0  0  0
   -5.7397   -1.3361   -0.6450 O   0  0  0  0  0  0  0  0  0  0  0  0
   -2.5182    0.4772    0.6953 C   0  0  0  0  0  0  0  0  0  0  0  0
    1.7884    1.3229   -1.1821 C   0  0  0  0  0  0  0  0  0  0  0  0
    1.2220    1.8393   -0.0314 O   0  0  0  0  0  0  0  0  0  0  0  0
    3.1206    1.6282   -1.4394 C   0  0  0  0  0  0  0  0  0  0  0  0
    5.1780    0.4958    0.6907 C   0  0  2  0  0  0  0  0  0  0  0  0
    6.3663    0.9351    1.5522 O   0  0  0  0  0  0  0  0  0  0  0  0
    5.7354   -1.1194    0.4352 C   0  0  1  0  0  0  0  0  0  0  0  0
    4.4421   -1.5227   -0.2841 O   0  0  0  0  0  0  0  0  0  0  0  0
    6.6002   -0.9389   -1.0351 C   0  0  2  0  0  0  0  0  0  0  0  0
    7.3849   -2.2008   -0.7255 O   0  0  0  0  0  0  0  0  0  0  0  0
  1  2  1  0  0  0  0
  3  2  1  6  0  0  0
  3  4  1  0  0  0  0
  4  5  1  0  0  0  0
  5  6  1  6  0  0  0
  5 35  1  0  0  0  0
  6  7  1  0  0  0  0
  7  8  2  0  0  0  0
  8  9  1  0  0  0  0
  9 10  2  0  0  0  0
 10 11  1  0  0  0  0
 10 32  1  0  0  0  0
 11 12  2  0  0  0  0
 12 13  1  0  0  0  0
 13 14  2  0  0  0  0
 14 15  1  0  0  0  0
 15 16  1  0  0  0  0
 15 17  2  0  0  0  0
 17 18  1  0  0  0  0
 18 19  1  0  0  0  0
 18 31  2  0  0  0  0
 20 19  1  1  0  0  0
 20 21  1  0  0  0  0
 21 22  1  0  0  0  0
 22 23  1  6  0  0  0
 22 25  1  0  0  0  0
 23 24  1  0  0  0  0
 25 26  1  6  0  0  0
 25 27  1  0  0  0  0
 27 28  1  1  0  0  0
 27 29  1  0  0  0  0
 29 30  1  6  0  0  0
 29 20  1  0  0  0  0
 31 13  1  0  0  0  0
 32 33  1  0  0  0  0
 32 34  2  0  0  0  0
 34  7  1  0  0  0  0
 35 36  1  1  0  0  0
 35 37  1  0  0  0  0
 37 38  1  6  0  0  0
 37 39  1  0  0  0  0
 39 40  1  1  0  0  0
 39  3  1  0  0  0  0
M  END
>  <zinc_id>
ZINC000044359935

>  <smiles>
OC[C@H]1O[C@@H](Oc2cc(O)cc(/C=C/c3ccc(O[C@@H]4O[C@H](CO)[C@@H](O)[C@H](O)[C@H]4O)cc3O)c2)[C@H](O)[C@@H](O)[C@@H]1O

$$$$
