
 OpenBabel05042123343D

 27 29  0  0  0  0  0  0  0  0999 V2000
   -5.5586    2.0001    0.2010 C   0  0  0  0  0  0  0  0  0  0  0  0
   -5.0404    1.5378   -1.0448 O   0  0  0  0  0  0  0  0  0  0  0  0
   -3.6756    1.2562   -1.1612 C   0  0  0  0  0  0  0  0  0  0  0  0
   -2.7613    2.3016   -1.1175 C   0  0  0  0  0  0  0  0  0  0  0  0
   -1.5454    2.1467   -0.4621 C   0  0  0  0  0  0  0  0  0  0  0  0
   -1.1926    0.9494    0.1488 C   0  0  0  0  0  0  0  0  0  0  0  0
   -0.5394    1.0007    1.4643 C   0  0  0  0  0  0  0  0  0  0  0  0
    0.3970    0.1247    1.7400 C   0  0  0  0  0  0  0  0  0  0  0  0
    0.7721   -0.4411    3.0354 C   0  0  0  0  0  0  0  0  0  0  0  0
    0.0475   -0.4309    4.0739 O   0  0  0  0  0  0  0  0  0  0  0  0
    1.9223   -1.2482    2.7603 N   0  0  0  0  0  0  0  0  0  0  0  0
    2.3837   -0.9800    1.4310 C   0  0  0  0  0  0  0  0  0  0  0  0
    3.6021   -1.2546    0.8224 C   0  0  0  0  0  0  0  0  0  0  0  0
    3.8904   -0.6535   -0.3883 C   0  0  0  0  0  0  0  0  0  0  0  0
    5.1616   -0.1938   -0.7202 O   0  0  0  0  0  0  0  0  0  0  0  0
    6.1013    0.2595    0.2234 C   0  0  0  0  0  0  0  0  0  0  0  0
    2.7945   -0.2756   -1.1550 C   0  0  0  0  0  0  0  0  0  0  0  0
    3.0376    0.1793   -2.4507 O   0  0  0  0  0  0  0  0  0  0  0  0
    4.3397    0.5579   -2.8509 C   0  0  0  0  0  0  0  0  0  0  0  0
    1.5783    0.0608   -0.5730 C   0  0  0  0  0  0  0  0  0  0  0  0
    1.3789   -0.3272    0.7467 C   0  0  0  0  0  0  0  0  0  0  0  0
   -2.0022   -0.1403   -0.1470 C   0  0  0  0  0  0  0  0  0  0  0  0
   -1.6288   -1.3940    0.3324 O   0  0  0  0  0  0  0  0  0  0  0  0
   -1.5911   -2.5381   -0.5125 C   0  0  0  0  0  0  0  0  0  0  0  0
   -3.1600   -0.0073   -0.9042 C   0  0  0  0  0  0  0  0  0  0  0  0
   -4.0778   -1.0618   -0.9401 O   0  0  0  0  0  0  0  0  0  0  0  0
   -4.6336   -1.4283    0.3195 C   0  0  0  0  0  0  0  0  0  0  0  0
  1  2  1  0  0  0  0
  2  3  1  0  0  0  0
  3  4  2  0  0  0  0
  4  5  1  0  0  0  0
  5  6  2  0  0  0  0
  6  7  1  0  0  0  0
  6 22  1  0  0  0  0
  7  8  2  0  0  0  0
  8  9  1  0  0  0  0
  9 10  2  0  0  0  0
  9 11  1  0  0  0  0
 11 12  1  0  0  0  0
 12 13  2  0  0  0  0
 13 14  1  0  0  0  0
 14 15  1  0  0  0  0
 14 17  2  0  0  0  0
 15 16  1  0  0  0  0
 17 18  1  0  0  0  0
 17 20  1  0  0  0  0
 18 19  1  0  0  0  0
 20 21  2  0  0  0  0
 21  8  1  0  0  0  0
 21 12  1  0  0  0  0
 22 23  1  0  0  0  0
 22 25  2  0  0  0  0
 23 24  1  0  0  0  0
 25 26  1  0  0  0  0
 25  3  1  0  0  0  0
 26 27  1  0  0  0  0
M  END
>  <zinc_id>
ZINC000044790638

>  <smiles>
COc1cc2c(cc1OC)/C(=C\c1ccc(OC)c(OC)c1OC)C(=O)N2

$$$$
