
 OpenBabel05042123343D

 25 26  0  0  0  0  0  0  0  0999 V2000
    7.4674    0.6614    0.1699 C   0  0  0  0  0  0  0  0  0  0  0  0
    6.5040   -0.3278   -0.1098 O   0  0  0  0  0  0  0  0  0  0  0  0
    5.1595   -0.0045   -0.0573 C   0  0  0  0  0  0  0  0  0  0  0  0
    4.6719    1.2690   -0.3084 C   0  0  0  0  0  0  0  0  0  0  0  0
    3.3539    1.5368    0.0394 C   0  0  0  0  0  0  0  0  0  0  0  0
    2.5344    0.5737    0.6140 C   0  0  0  0  0  0  0  0  0  0  0  0
    1.0904    0.8354    0.6735 C   0  0  0  0  0  0  0  0  0  0  0  0
    0.1911   -0.1109    0.8394 C   0  0  0  0  0  0  0  0  0  0  0  0
   -1.0632   -0.1718    0.0788 C   0  0  0  0  0  0  0  0  0  0  0  0
   -1.6701   -1.4053   -0.1221 C   0  0  0  0  0  0  0  0  0  0  0  0
   -3.0111   -1.5590   -0.3603 C   0  0  0  0  0  0  0  0  0  0  0  0
   -3.7578   -2.6388    0.1211 O   0  0  0  0  0  0  0  0  0  0  0  0
   -3.1590   -3.8608    0.4782 C   0  0  0  0  0  0  0  0  0  0  0  0
   -3.7064   -0.4359   -0.7912 C   0  0  0  0  0  0  0  0  0  0  0  0
   -5.0965   -0.5366   -0.9073 O   0  0  0  0  0  0  0  0  0  0  0  0
   -5.8904   -0.9586    0.1934 C   0  0  0  0  0  0  0  0  0  0  0  0
   -3.1011    0.8103   -0.6874 C   0  0  0  0  0  0  0  0  0  0  0  0
   -3.8478    1.9119   -1.0569 O   0  0  0  0  0  0  0  0  0  0  0  0
   -3.3253    3.1934   -1.2974 C   0  0  0  0  0  0  0  0  0  0  0  0
   -1.8147    0.9643   -0.1938 C   0  0  0  0  0  0  0  0  0  0  0  0
   -1.5169    2.1298    0.5184 O   0  0  0  0  0  0  0  0  0  0  0  0
   -1.8028    2.2028    1.9131 C   0  0  0  0  0  0  0  0  0  0  0  0
    3.0304   -0.7237    0.6276 C   0  0  0  0  0  0  0  0  0  0  0  0
    4.2394   -1.0413    0.0379 C   0  0  0  0  0  0  0  0  0  0  0  0
    4.5207   -2.3141   -0.4672 O   0  0  0  0  0  0  0  0  0  0  0  0
  1  2  1  0  0  0  0
  2  3  1  0  0  0  0
  3  4  2  0  0  0  0
  4  5  1  0  0  0  0
  5  6  2  0  0  0  0
  6  7  1  0  0  0  0
  6 23  1  0  0  0  0
  7  8  2  0  0  0  0
  8  9  1  0  0  0  0
  9 10  2  0  0  0  0
 10 11  1  0  0  0  0
 11 12  1  0  0  0  0
 11 14  2  0  0  0  0
 12 13  1  0  0  0  0
 14 15  1  0  0  0  0
 14 17  1  0  0  0  0
 15 16  1  0  0  0  0
 17 18  1  0  0  0  0
 17 20  2  0  0  0  0
 18 19  1  0  0  0  0
 20 21  1  0  0  0  0
 20  9  1  0  0  0  0
 21 22  1  0  0  0  0
 23 24  2  0  0  0  0
 24 25  1  0  0  0  0
 24  3  1  0  0  0  0
M  END
>  <zinc_id>
ZINC000066252292

>  <smiles>
COc1ccc(/C=C/c2cc(OC)c(OC)c(OC)c2OC)cc1O

$$$$
