
 OpenBabel05042123343D

 24 26  0  0  0  0  0  0  0  0999 V2000
    6.7015   -0.1551    0.5781 C   0  0  0  0  0  0  0  0  0  0  0  0
    6.0320   -0.1264   -0.6792 O   0  0  0  0  0  0  0  0  0  0  0  0
    4.6834   -0.4838   -0.7681 C   0  0  0  0  0  0  0  0  0  0  0  0
    3.7472    0.3700   -1.3385 C   0  0  0  0  0  0  0  0  0  0  0  0
    2.5113    0.6031   -0.7491 C   0  0  0  0  0  0  0  0  0  0  0  0
    2.0718   -0.3210    0.1899 C   0  0  0  0  0  0  0  0  0  0  0  0
    1.0126   -0.0012    1.1544 C   0  0  0  0  0  0  0  0  0  0  0  0
    0.1741    1.0031    0.9974 C   0  0  0  0  0  0  0  0  0  0  0  0
   -1.2798    0.8605    1.0711 C   0  0  0  0  0  0  0  0  0  0  0  0
   -1.8899   -0.1388    1.8188 C   0  0  0  0  0  0  0  0  0  0  0  0
   -3.0091   -0.8132    1.3983 C   0  0  0  0  0  0  0  0  0  0  0  0
   -3.7722   -0.2450    0.3937 C   0  0  0  0  0  0  0  0  0  0  0  0
   -3.2694    0.8582   -0.2765 C   0  0  0  0  0  0  0  0  0  0  0  0
   -4.0067    1.4939   -1.2707 O   0  0  0  0  0  0  0  0  0  0  0  0
   -4.4985    2.7967   -1.0721 C   0  0  0  0  0  0  0  0  0  0  0  0
   -2.0598    1.4285    0.0737 C   0  0  0  0  0  0  0  0  0  0  0  0
   -1.4327    2.2195   -0.8922 O   0  0  0  0  0  0  0  0  0  0  0  0
   -1.0304    1.6477   -2.1335 C   0  0  0  0  0  0  0  0  0  0  0  0
   -4.7695   -1.1520    0.0325 O   0  0  0  0  0  0  0  0  0  0  0  0
   -4.4046   -2.4321    0.5379 C   0  0  0  0  0  0  0  0  0  0  0  0
   -3.5674   -2.0732    1.6345 O   0  0  0  0  0  0  0  0  0  0  0  0
    2.8294   -1.4477    0.4305 C   0  0  0  0  0  0  0  0  0  0  0  0
    4.1508   -1.5088    0.0042 C   0  0  0  0  0  0  0  0  0  0  0  0
    5.0758   -2.3829    0.5682 O   0  0  0  0  0  0  0  0  0  0  0  0
  1  2  1  0  0  0  0
  2  3  1  0  0  0  0
  3  4  2  0  0  0  0
  4  5  1  0  0  0  0
  5  6  2  0  0  0  0
  6  7  1  0  0  0  0
  6 22  1  0  0  0  0
  7  8  2  0  0  0  0
  8  9  1  0  0  0  0
  9 10  2  0  0  0  0
 10 11  1  0  0  0  0
 11 12  2  0  0  0  0
 12 13  1  0  0  0  0
 12 19  1  0  0  0  0
 13 14  1  0  0  0  0
 13 16  2  0  0  0  0
 14 15  1  0  0  0  0
 16 17  1  0  0  0  0
 16  9  1  0  0  0  0
 17 18  1  0  0  0  0
 19 20  1  0  0  0  0
 20 21  1  0  0  0  0
 21 11  1  0  0  0  0
 22 23  2  0  0  0  0
 23 24  1  0  0  0  0
 23  3  1  0  0  0  0
M  END
>  <zinc_id>
ZINC000066258987

>  <smiles>
COc1ccc(/C=C/c2cc3c(c(OC)c2OC)OCO3)cc1O

$$$$
