
 OpenBabel05042123343D

 27 28  0  0  0  0  0  0  0  0999 V2000
    2.1687   -1.7487   -3.0683 C   0  0  0  0  0  0  0  0  0  0  0  0
    2.3936   -1.9762   -1.6816 O   0  0  0  0  0  0  0  0  0  0  0  0
    2.5524   -0.8293   -0.8971 C   0  0  0  0  0  0  0  0  0  0  0  0
    3.7297   -0.1144   -1.0843 C   0  0  0  0  0  0  0  0  0  0  0  0
    4.1032    0.8564   -0.1671 C   0  0  0  0  0  0  0  0  0  0  0  0
    5.4463    1.1118    0.1285 O   0  0  0  0  0  0  0  0  0  0  0  0
    6.4324    1.2370   -0.8881 C   0  0  0  0  0  0  0  0  0  0  0  0
    3.1975    1.2176    0.8222 C   0  0  0  0  0  0  0  0  0  0  0  0
    3.3048    2.5170    1.3270 O   0  0  0  0  0  0  0  0  0  0  0  0
    2.2002    3.3907    1.1116 C   0  0  0  0  0  0  0  0  0  0  0  0
    2.0177    0.5025    0.9812 C   0  0  0  0  0  0  0  0  0  0  0  0
    1.6589   -0.5241    0.1170 C   0  0  0  0  0  0  0  0  0  0  0  0
    0.9541   -1.6663    0.7134 C   0  0  0  0  0  0  0  0  0  0  0  0
   -0.3124   -1.4646    1.0664 C   0  0  0  0  0  0  0  0  0  0  0  0
   -0.8479   -2.3579    2.0693 C   0  0  0  0  0  0  0  0  0  0  0  0
   -1.4479   -3.2261    2.5700 N   0  0  0  0  0  0  0  0  0  0  0  0
   -1.1630   -0.8759    0.0229 C   0  0  0  0  0  0  0  0  0  0  0  0
   -0.9190    0.3628   -0.5250 C   0  0  0  0  0  0  0  0  0  0  0  0
   -1.9858    1.1942   -0.8341 C   0  0  0  0  0  0  0  0  0  0  0  0
   -3.3043    0.7849   -0.6833 C   0  0  0  0  0  0  0  0  0  0  0  0
   -4.3337    1.7199   -0.3616 N   0  3  0  0  0  0  0  0  0  0  0  0
   -4.8444    1.7949    0.7747 O   0  0  0  0  0  0  0  0  0  0  0  0
   -5.0132    2.3687   -1.3792 O   0  5  0  0  0  0  0  0  0  0  0  0
   -3.5004   -0.5864   -0.5820 C   0  0  0  0  0  0  0  0  0  0  0  0
   -4.8215   -0.9820   -0.3462 O   0  0  0  0  0  0  0  0  0  0  0  0
   -5.2284   -1.3175    0.9794 C   0  0  0  0  0  0  0  0  0  0  0  0
   -2.4379   -1.3889   -0.1857 C   0  0  0  0  0  0  0  0  0  0  0  0
  1  2  1  0  0  0  0
  2  3  1  0  0  0  0
  3  4  2  0  0  0  0
  4  5  1  0  0  0  0
  5  6  1  0  0  0  0
  5  8  2  0  0  0  0
  6  7  1  0  0  0  0
  8  9  1  0  0  0  0
  8 11  1  0  0  0  0
  9 10  1  0  0  0  0
 11 12  2  0  0  0  0
 12 13  1  0  0  0  0
 12  3  1  0  0  0  0
 13 14  2  0  0  0  0
 14 15  1  0  0  0  0
 14 17  1  0  0  0  0
 15 16  3  0  0  0  0
 17 18  2  0  0  0  0
 18 19  1  0  0  0  0
 19 20  2  0  0  0  0
 20 21  1  0  0  0  0
 20 24  1  0  0  0  0
 21 22  2  0  0  0  0
 21 23  1  0  0  0  0
 24 25  1  0  0  0  0
 24 27  2  0  0  0  0
 25 26  1  0  0  0  0
 27 17  1  0  0  0  0
M  CHG  2  21   1  23  -1
M  END
>  <zinc_id>
ZINC000089429330

>  <smiles>
COc1cc(OC)c(OC)cc1/C=C(/C#N)c1ccc([N+](=O)[O-])c(OC)c1

$$$$
