
 OpenBabel05042123343D

 40 43  0  0  0  0  0  0  0  0999 V2000
    7.9931    2.1539    0.0174 O   0  0  0  0  0  0  0  0  0  0  0  0
    8.1174    1.1401    0.2878 C   0  0  0  0  0  0  0  0  0  0  0  0
    6.9053    0.9684    1.4516 C   0  0  1  0  0  0  0  0  0  0  0  0
    5.7196    0.7377    0.5444 O   0  0  0  0  0  0  0  0  0  0  0  0
    5.6020   -0.6831    0.0407 C   0  0  1  0  0  0  0  0  0  0  0  0
    4.8659   -0.1756   -1.2801 O   0  0  0  0  0  0  0  0  0  0  0  0
    3.5381    0.0230   -0.8927 C   0  0  0  0  0  0  0  0  0  0  0  0
    2.5291   -0.8265   -1.3368 C   0  0  0  0  0  0  0  0  0  0  0  0
    1.2304   -0.3255   -1.3195 C   0  0  0  0  0  0  0  0  0  0  0  0
    1.0079    0.8501   -0.6763 C   0  0  0  0  0  0  0  0  0  0  0  0
   -0.0851    1.7848   -0.9177 C   0  0  0  0  0  0  0  0  0  0  0  0
   -0.7964    1.9398    0.2085 C   0  0  0  0  0  0  0  0  0  0  0  0
   -1.5957    0.7576    0.4848 C   0  0  0  0  0  0  0  0  0  0  0  0
   -1.1226   -0.4127    1.0202 C   0  0  0  0  0  0  0  0  0  0  0  0
   -1.8854   -1.5722    0.9205 C   0  0  0  0  0  0  0  0  0  0  0  0
   -1.3629   -2.7559    1.4573 O   0  0  0  0  0  0  0  0  0  0  0  0
   -3.0819   -1.5852    0.2062 C   0  0  0  0  0  0  0  0  0  0  0  0
   -3.3425   -0.5186   -0.6244 C   0  0  0  0  0  0  0  0  0  0  0  0
   -4.5582   -0.3621   -1.3171 O   0  0  0  0  0  0  0  0  0  0  0  0
   -5.5669   -0.1397   -0.1070 C   0  0  2  0  0  0  0  0  0  0  0  0
   -6.7196   -0.8287   -0.8810 O   0  0  0  0  0  0  0  0  0  0  0  0
   -6.9453   -0.6480    0.6334 C   0  0  2  0  0  0  0  0  0  0  0  0
   -7.8868   -2.0267    0.6825 C   0  0  0  0  0  0  0  0  0  0  0  0
   -6.8685   -2.9837    0.4949 O   0  0  0  0  0  0  0  0  0  0  0  0
   -8.3215    0.3382    0.3528 C   0  0  1  0  0  0  0  0  0  0  0  0
   -8.0056    1.2207    1.5588 O   0  0  0  0  0  0  0  0  0  0  0  0
   -7.6931    1.4959   -0.7701 C   0  0  2  0  0  0  0  0  0  0  0  0
   -7.7256    0.5537   -1.9892 O   0  0  0  0  0  0  0  0  0  0  0  0
   -5.9747    1.4840   -0.5979 C   0  0  1  0  0  0  0  0  0  0  0  0
   -6.0238    1.9756    0.8492 O   0  0  0  0  0  0  0  0  0  0  0  0
   -2.8018    0.6925   -0.1987 C   0  0  0  0  0  0  0  0  0  0  0  0
    1.9200    1.2461    0.2905 C   0  0  0  0  0  0  0  0  0  0  0  0
    1.5474    2.1909    1.2180 O   0  0  0  0  0  0  0  0  0  0  0  0
    3.2222    0.7642    0.2111 C   0  0  0  0  0  0  0  0  0  0  0  0
    7.1784   -0.4750   -0.7050 C   0  0  2  0  0  0  0  0  0  0  0  0
    6.8841   -1.6353   -1.6261 O   0  0  0  0  0  0  0  0  0  0  0  0
    7.7121   -1.5404    0.5249 C   0  0  1  0  0  0  0  0  0  0  0  0
    9.1567   -1.0198    0.5431 O   0  0  0  0  0  0  0  0  0  0  0  0
    7.3387   -0.6522    1.9602 C   0  0  2  0  0  0  0  0  0  0  0  0
    5.8955   -1.1503    2.1034 O   0  0  0  0  0  0  0  0  0  0  0  0
  1  2  1  0  0  0  0
  3  2  1  6  0  0  0
  3  4  1  0  0  0  0
  4  5  1  0  0  0  0
  5  6  1  6  0  0  0
  5 35  1  0  0  0  0
  6  7  1  0  0  0  0
  7  8  2  0  0  0  0
  8  9  1  0  0  0  0
  9 10  2  0  0  0  0
 10 11  1  0  0  0  0
 10 32  1  0  0  0  0
 11 12  2  0  0  0  0
 12 13  1  0  0  0  0
 13 14  2  0  0  0  0
 14 15  1  0  0  0  0
 15 16  1  0  0  0  0
 15 17  2  0  0  0  0
 17 18  1  0  0  0  0
 18 19  1  0  0  0  0
 18 31  2  0  0  0  0
 20 19  1  6  0  0  0
 20 21  1  0  0  0  0
 21 22  1  0  0  0  0
 22 23  1  1  0  0  0
 22 25  1  0  0  0  0
 23 24  1  0  0  0  0
 25 26  1  1  0  0  0
 25 27  1  0  0  0  0
 27 28  1  6  0  0  0
 27 29  1  0  0  0  0
 29 30  1  1  0  0  0
 29 20  1  0  0  0  0
 31 13  1  0  0  0  0
 32 33  1  0  0  0  0
 32 34  2  0  0  0  0
 34  7  1  0  0  0  0
 35 36  1  6  0  0  0
 35 37  1  0  0  0  0
 37 38  1  6  0  0  0
 37 39  1  0  0  0  0
 39 40  1  6  0  0  0
 39  3  1  0  0  0  0
M  END
>  <zinc_id>
ZINC000095913762

>  <smiles>
OC[C@H]1O[C@@H](Oc2cc(O)cc(/C=C\c3ccc(O[C@@H]4O[C@H](CO)[C@@H](O)[C@H](O)[C@H]4O)cc3O)c2)[C@H](O)[C@@H](O)[C@@H]1O

$$$$
