
 OpenBabel05042123343D

 27 28  0  0  0  0  0  0  0  0999 V2000
   -1.7569    2.8916    0.3589 C   0  0  0  0  0  0  0  0  0  0  0  0
   -1.2777    1.6350    0.8239 O   0  0  0  0  0  0  0  0  0  0  0  0
   -2.0981    0.5217    0.6100 C   0  0  0  0  0  0  0  0  0  0  0  0
   -3.2742    0.3249    1.3190 C   0  0  0  0  0  0  0  0  0  0  0  0
   -4.3533   -0.2816    0.6911 C   0  0  0  0  0  0  0  0  0  0  0  0
   -5.5369   -0.5841    1.3600 O   0  0  0  0  0  0  0  0  0  0  0  0
   -6.1434   -1.8631    1.1885 C   0  0  0  0  0  0  0  0  0  0  0  0
   -4.3273   -0.5575   -0.6709 C   0  0  0  0  0  0  0  0  0  0  0  0
   -5.4703   -0.4119   -1.4605 O   0  0  0  0  0  0  0  0  0  0  0  0
   -6.0498    0.8795   -1.6126 C   0  0  0  0  0  0  0  0  0  0  0  0
   -3.0606   -0.6823   -1.2289 C   0  0  0  0  0  0  0  0  0  0  0  0
   -1.9376   -0.2704   -0.5209 C   0  0  0  0  0  0  0  0  0  0  0  0
   -0.5904   -0.3742   -1.0951 C   0  0  0  0  0  0  0  0  0  0  0  0
    0.4391   -0.8396   -0.3864 C   0  0  0  0  0  0  0  0  0  0  0  0
    0.0797   -1.7093    0.7116 C   0  0  0  0  0  0  0  0  0  0  0  0
   -0.1462   -2.2459    1.7233 N   0  0  0  0  0  0  0  0  0  0  0  0
    1.7910   -0.2855   -0.5229 C   0  0  0  0  0  0  0  0  0  0  0  0
    2.0160    1.0807   -0.6440 C   0  0  0  0  0  0  0  0  0  0  0  0
    3.0762    1.6421    0.0573 C   0  0  0  0  0  0  0  0  0  0  0  0
    4.1417    0.8753    0.5095 C   0  0  0  0  0  0  0  0  0  0  0  0
    5.4111    1.4896    0.7568 N   0  3  0  0  0  0  0  0  0  0  0  0
    5.5685    2.1664    1.7986 O   0  0  0  0  0  0  0  0  0  0  0  0
    6.1472    1.8497   -0.3355 O   0  5  0  0  0  0  0  0  0  0  0  0
    4.0505   -0.4977    0.3134 C   0  0  0  0  0  0  0  0  0  0  0  0
    5.2246   -1.2388    0.4726 O   0  0  0  0  0  0  0  0  0  0  0  0
    5.1815   -2.4691    1.1908 C   0  0  0  0  0  0  0  0  0  0  0  0
    2.8957   -1.0455   -0.2044 C   0  0  0  0  0  0  0  0  0  0  0  0
  1  2  1  0  0  0  0
  2  3  1  0  0  0  0
  3  4  2  0  0  0  0
  4  5  1  0  0  0  0
  5  6  1  0  0  0  0
  5  8  2  0  0  0  0
  6  7  1  0  0  0  0
  8  9  1  0  0  0  0
  8 11  1  0  0  0  0
  9 10  1  0  0  0  0
 11 12  2  0  0  0  0
 12 13  1  0  0  0  0
 12  3  1  0  0  0  0
 13 14  2  0  0  0  0
 14 15  1  0  0  0  0
 14 17  1  0  0  0  0
 15 16  3  0  0  0  0
 17 18  2  0  0  0  0
 18 19  1  0  0  0  0
 19 20  2  0  0  0  0
 20 21  1  0  0  0  0
 20 24  1  0  0  0  0
 21 22  2  0  0  0  0
 21 23  1  0  0  0  0
 24 25  1  0  0  0  0
 24 27  2  0  0  0  0
 25 26  1  0  0  0  0
 27 17  1  0  0  0  0
M  CHG  2  21   1  23  -1
M  END
>  <zinc_id>
ZINC000098053269

>  <smiles>
COc1cc(OC)c(OC)cc1/C=C(\C#N)c1ccc([N+](=O)[O-])c(OC)c1

$$$$
