
 OpenBabel05042123343D

 40 43  0  0  0  0  0  0  0  0999 V2000
    6.3519    2.0713    1.4823 O   0  0  0  0  0  0  0  0  0  0  0  0
    7.0875    1.5307    1.4087 C   0  0  0  0  0  0  0  0  0  0  0  0
    6.6581    0.3620    0.3097 C   0  0  1  0  0  0  0  0  0  0  0  0
    6.1323    1.4243   -0.6417 O   0  0  0  0  0  0  0  0  0  0  0  0
    5.4924    0.5934   -1.7804 C   0  0  2  0  0  0  0  0  0  0  0  0
    5.5226   -0.7941   -1.0366 O   0  0  0  0  0  0  0  0  0  0  0  0
    4.2470   -0.8814   -0.4706 C   0  0  0  0  0  0  0  0  0  0  0  0
    3.6762   -2.1137   -0.1787 C   0  0  0  0  0  0  0  0  0  0  0  0
    2.4398   -2.1678    0.4523 C   0  0  0  0  0  0  0  0  0  0  0  0
    1.7147   -1.0197    0.7470 C   0  0  0  0  0  0  0  0  0  0  0  0
    0.2568   -1.1938    0.8030 C   0  0  0  0  0  0  0  0  0  0  0  0
   -0.3826   -0.7859   -0.2775 C   0  0  0  0  0  0  0  0  0  0  0  0
   -1.8200   -0.4746   -0.2922 C   0  0  0  0  0  0  0  0  0  0  0  0
   -2.2411    0.4269   -1.2612 C   0  0  0  0  0  0  0  0  0  0  0  0
   -3.3533    1.2114   -1.0812 C   0  0  0  0  0  0  0  0  0  0  0  0
   -4.1617    1.5433   -2.1644 O   0  0  0  0  0  0  0  0  0  0  0  0
   -3.7315    1.4458    0.2346 C   0  0  0  0  0  0  0  0  0  0  0  0
   -3.4807    0.4680    1.1933 C   0  0  0  0  0  0  0  0  0  0  0  0
   -4.2724    0.1827    2.2481 O   0  0  0  0  0  0  0  0  0  0  0  0
   -5.6988   -0.4188    1.9934 C   0  0  2  0  0  0  0  0  0  0  0  0
   -5.6110   -0.3567    0.4414 O   0  0  0  0  0  0  0  0  0  0  0  0
   -6.9559   -1.0711    0.2894 C   0  0  2  0  0  0  0  0  0  0  0  0
   -6.8455   -1.1174   -1.3656 C   0  0  0  0  0  0  0  0  0  0  0  0
   -6.4417    0.1215   -1.7689 O   0  0  0  0  0  0  0  0  0  0  0  0
   -7.8383    0.4268    0.2220 C   0  0  1  0  0  0  0  0  0  0  0  0
   -9.1645   -0.2846    0.1288 O   0  0  0  0  0  0  0  0  0  0  0  0
   -7.9610    0.4879    1.9415 C   0  0  2  0  0  0  0  0  0  0  0  0
   -8.6080    1.8541    1.8504 O   0  0  0  0  0  0  0  0  0  0  0  0
   -6.3928    1.1915    2.0274 C   0  0  1  0  0  0  0  0  0  0  0  0
   -6.4113    1.2206    3.5299 O   0  0  0  0  0  0  0  0  0  0  0  0
   -2.4104   -0.3716    0.9489 C   0  0  0  0  0  0  0  0  0  0  0  0
    2.2083    0.2051    0.3243 C   0  0  0  0  0  0  0  0  0  0  0  0
    1.3677    1.1826   -0.2214 O   0  0  0  0  0  0  0  0  0  0  0  0
    3.5218    0.2113   -0.0201 C   0  0  0  0  0  0  0  0  0  0  0  0
    7.0255    0.3969   -2.6057 C   0  0  2  0  0  0  0  0  0  0  0  0
    6.4526   -0.6298   -3.5476 O   0  0  0  0  0  0  0  0  0  0  0  0
    7.6589   -0.8004   -1.5516 C   0  0  1  0  0  0  0  0  0  0  0  0
    8.9653   -0.7523   -2.3099 O   0  0  0  0  0  0  0  0  0  0  0  0
    8.2085    0.4283   -0.4708 C   0  0  2  0  0  0  0  0  0  0  0  0
    8.7943   -0.5917    0.4697 O   0  0  0  0  0  0  0  0  0  0  0  0
  1  2  1  0  0  0  0
  3  2  1  1  0  0  0
  3  4  1  0  0  0  0
  4  5  1  0  0  0  0
  5  6  1  1  0  0  0
  5 35  1  0  0  0  0
  6  7  1  0  0  0  0
  7  8  2  0  0  0  0
  8  9  1  0  0  0  0
  9 10  2  0  0  0  0
 10 11  1  0  0  0  0
 10 32  1  0  0  0  0
 11 12  2  0  0  0  0
 12 13  1  0  0  0  0
 13 14  2  0  0  0  0
 14 15  1  0  0  0  0
 15 16  1  0  0  0  0
 15 17  2  0  0  0  0
 17 18  1  0  0  0  0
 18 19  1  0  0  0  0
 18 31  2  0  0  0  0
 20 19  1  1  0  0  0
 20 21  1  0  0  0  0
 21 22  1  0  0  0  0
 22 23  1  6  0  0  0
 22 25  1  0  0  0  0
 23 24  1  0  0  0  0
 25 26  1  6  0  0  0
 25 27  1  0  0  0  0
 27 28  1  6  0  0  0
 27 29  1  0  0  0  0
 29 30  1  1  0  0  0
 29 20  1  0  0  0  0
 31 13  1  0  0  0  0
 32 33  1  0  0  0  0
 32 34  2  0  0  0  0
 34  7  1  0  0  0  0
 35 36  1  6  0  0  0
 35 37  1  0  0  0  0
 37 38  1  6  0  0  0
 37 39  1  0  0  0  0
 39 40  1  1  0  0  0
 39  3  1  0  0  0  0
M  END
>  <zinc_id>
ZINC000100038347

>  <smiles>
OC[C@H]1O[C@@H](Oc2cc(O)cc(/C=C/c3ccc(O[C@H]4O[C@H](CO)[C@@H](O)[C@H](O)[C@H]4O)cc3O)c2)[C@H](O)[C@@H](O)[C@@H]1O

$$$$
