
 OpenBabel05042123343D

 32 33  0  0  0  0  0  0  0  0999 V2000
   -3.8309    0.6884   -2.6263 C   0  0  0  0  0  0  0  0  0  0  0  0
   -4.2170    1.4214   -1.4710 O   0  0  0  0  0  0  0  0  0  0  0  0
   -3.2418    1.5076   -0.4720 C   0  0  0  0  0  0  0  0  0  0  0  0
   -2.2109    2.4356   -0.5279 C   0  0  0  0  0  0  0  0  0  0  0  0
   -1.0252    2.2017    0.1577 C   0  0  0  0  0  0  0  0  0  0  0  0
   -0.8060    0.9438    0.7063 C   0  0  0  0  0  0  0  0  0  0  0  0
    0.5512    0.3935    0.8033 C   0  0  0  0  0  0  0  0  0  0  0  0
    1.0372   -0.3776   -0.1699 C   0  0  0  0  0  0  0  0  0  0  0  0
    2.4504   -0.3336   -0.5598 C   0  0  0  0  0  0  0  0  0  0  0  0
    3.3116   -1.3806   -0.2545 C   0  0  0  0  0  0  0  0  0  0  0  0
    4.6694   -1.1564   -0.0999 C   0  0  0  0  0  0  0  0  0  0  0  0
    5.5653   -2.1564    0.2563 O   0  0  0  0  0  0  0  0  0  0  0  0
    5.5513   -3.4490   -0.3006 C   0  0  0  0  0  0  0  0  0  0  0  0
    5.1476    0.1444   -0.0229 C   0  0  0  0  0  0  0  0  0  0  0  0
    6.1758    0.4726    0.8661 O   0  0  0  0  0  0  0  0  0  0  0  0
    7.5285    0.2655    0.4672 C   0  0  0  0  0  0  0  0  0  0  0  0
    4.3960    1.1186   -0.6665 C   0  0  0  0  0  0  0  0  0  0  0  0
    4.8729    2.4259   -0.5228 O   0  0  0  0  0  0  0  0  0  0  0  0
    4.1990    3.2091    0.4583 C   0  0  0  0  0  0  0  0  0  0  0  0
    3.0660    0.8551   -0.9268 C   0  0  0  0  0  0  0  0  0  0  0  0
   -1.8506    0.0537    0.8866 C   0  0  0  0  0  0  0  0  0  0  0  0
   -1.6589   -1.2405    1.3766 O   0  0  0  0  0  0  0  0  0  0  0  0
   -1.9323   -2.5472    0.2945 P   0  0  0  0  0  0  0  0  0  0  0  0
   -2.0535   -2.0527   -1.1391 O   0  0  0  0  0  0  0  0  0  0  0  0
   -0.6697   -3.6564    0.4151 O   0  0  0  0  0  0  0  0  0  0  0  0
   -3.3877   -3.3218    0.6793 O   0  0  0  0  0  0  0  0  0  0  0  0
   -3.0952    0.4696    0.4380 C   0  0  0  0  0  0  0  0  0  0  0  0
   -4.2349   -0.1919    0.8527 O   0  0  0  0  0  0  0  0  0  0  0  0
   -5.6967    0.6437    1.2103 P   0  0  0  0  0  0  0  0  0  0  0  0
   -5.5731    2.1232    0.9782 O   0  0  0  0  0  0  0  0  0  0  0  0
   -6.1526    0.4236    2.8211 O   0  0  0  0  0  0  0  0  0  0  0  0
   -6.8850    0.0671    0.1452 O   0  0  0  0  0  0  0  0  0  0  0  0
  1  2  1  0  0  0  0
  2  3  1  0  0  0  0
  3  4  2  0  0  0  0
  4  5  1  0  0  0  0
  5  6  2  0  0  0  0
  6  7  1  0  0  0  0
  6 21  1  0  0  0  0
  7  8  2  0  0  0  0
  8  9  1  0  0  0  0
  9 10  2  0  0  0  0
 10 11  1  0  0  0  0
 11 12  1  0  0  0  0
 11 14  2  0  0  0  0
 12 13  1  0  0  0  0
 14 15  1  0  0  0  0
 14 17  1  0  0  0  0
 15 16  1  0  0  0  0
 17 18  1  0  0  0  0
 17 20  2  0  0  0  0
 18 19  1  0  0  0  0
 20  9  1  0  0  0  0
 21 22  1  0  0  0  0
 21 27  2  0  0  0  0
 22 23  1  0  0  0  0
 23 24  2  0  0  0  0
 23 25  1  0  0  0  0
 23 26  1  0  0  0  0
 27 28  1  0  0  0  0
 27  3  1  0  0  0  0
 28 29  1  0  0  0  0
 29 30  2  0  0  0  0
 29 31  1  0  0  0  0
 29 32  1  0  0  0  0
M  END
>  <zinc_id>
ZINC000143843209

>  <smiles>
COc1cc(/C=C/c2ccc(OC)c(OP(=O)(O)O)c2OP(=O)(O)O)cc(OC)c1OC

$$$$
