
 OpenBabel05042123343D

 40 43  0  0  0  0  0  0  0  0999 V2000
    8.3725    0.5034   -1.7772 O   0  0  0  0  0  0  0  0  0  0  0  0
    8.1443    0.5220   -1.9574 C   0  0  0  0  0  0  0  0  0  0  0  0
    6.5160    0.6647   -1.7409 C   0  0  1  0  0  0  0  0  0  0  0  0
    6.5111   -0.3184   -0.5811 O   0  0  0  0  0  0  0  0  0  0  0  0
    5.4938    0.3896    0.3208 C   0  0  1  0  0  0  0  0  0  0  0  0
    5.1596   -0.9105    1.1060 O   0  0  0  0  0  0  0  0  0  0  0  0
    4.0854   -1.5813    0.5881 C   0  0  0  0  0  0  0  0  0  0  0  0
    3.7394   -1.5541   -0.7460 C   0  0  0  0  0  0  0  0  0  0  0  0
    2.5198   -2.1346   -1.0777 C   0  0  0  0  0  0  0  0  0  0  0  0
    1.6990   -2.6866   -0.1253 C   0  0  0  0  0  0  0  0  0  0  0  0
    0.2357   -2.5757   -0.1578 C   0  0  0  0  0  0  0  0  0  0  0  0
   -0.3111   -1.6313   -0.7585 C   0  0  0  0  0  0  0  0  0  0  0  0
   -1.3815   -0.7420   -0.5678 C   0  0  0  0  0  0  0  0  0  0  0  0
   -1.0736    0.6055   -0.4261 C   0  0  0  0  0  0  0  0  0  0  0  0
   -2.0993    1.5174   -0.2679 C   0  0  0  0  0  0  0  0  0  0  0  0
   -1.8902    2.8187    0.2005 O   0  0  0  0  0  0  0  0  0  0  0  0
   -3.3244    1.0942   -0.6342 C   0  0  0  0  0  0  0  0  0  0  0  0
   -3.7555   -0.2223   -0.7204 C   0  0  0  0  0  0  0  0  0  0  0  0
   -4.9709   -0.6106   -0.1307 O   0  0  0  0  0  0  0  0  0  0  0  0
   -6.2260   -0.1308   -0.9287 C   0  0  1  0  0  0  0  0  0  0  0  0
   -7.1974   -0.4303    0.2003 O   0  0  0  0  0  0  0  0  0  0  0  0
   -8.1547    0.4806   -0.5296 C   0  0  1  0  0  0  0  0  0  0  0  0
   -9.4779   -0.3519   -0.0012 C   0  0  0  0  0  0  0  0  0  0  0  0
   -9.3290   -1.5652   -0.6530 O   0  0  0  0  0  0  0  0  0  0  0  0
   -8.1600    1.4617    0.8672 C   0  0  2  0  0  0  0  0  0  0  0  0
   -8.4491    2.7660    0.1655 O   0  0  0  0  0  0  0  0  0  0  0  0
   -6.4845    1.7852    0.9873 C   0  0  1  0  0  0  0  0  0  0  0  0
   -6.0716    0.4570    1.5920 O   0  0  0  0  0  0  0  0  0  0  0  0
   -5.8784    1.5321   -0.5852 C   0  0  2  0  0  0  0  0  0  0  0  0
   -7.0169    2.1203   -1.3812 O   0  0  0  0  0  0  0  0  0  0  0  0
   -2.6927   -1.1174   -0.8241 C   0  0  0  0  0  0  0  0  0  0  0  0
    2.2515   -3.0420    1.0787 C   0  0  0  0  0  0  0  0  0  0  0  0
    1.5888   -3.9839    1.8424 O   0  0  0  0  0  0  0  0  0  0  0  0
    3.5064   -2.5433    1.4066 C   0  0  0  0  0  0  0  0  0  0  0  0
    6.6905    0.9095    1.4751 C   0  0  1  0  0  0  0  0  0  0  0  0
    7.3490   -0.4268    1.6383 O   0  0  0  0  0  0  0  0  0  0  0  0
    7.8197    1.3817    0.2794 C   0  0  2  0  0  0  0  0  0  0  0  0
    8.0632    2.7137    0.9272 O   0  0  0  0  0  0  0  0  0  0  0  0
    6.5999    2.0538   -0.7135 C   0  0  1  0  0  0  0  0  0  0  0  0
    7.5990    2.7821   -1.5612 O   0  0  0  0  0  0  0  0  0  0  0  0
  1  2  1  0  0  0  0
  3  2  1  6  0  0  0
  3  4  1  0  0  0  0
  4  5  1  0  0  0  0
  5  6  1  1  0  0  0
  5 35  1  0  0  0  0
  6  7  1  0  0  0  0
  7  8  2  0  0  0  0
  8  9  1  0  0  0  0
  9 10  2  0  0  0  0
 10 11  1  0  0  0  0
 10 32  1  0  0  0  0
 11 12  2  0  0  0  0
 12 13  1  0  0  0  0
 13 14  2  0  0  0  0
 14 15  1  0  0  0  0
 15 16  1  0  0  0  0
 15 17  2  0  0  0  0
 17 18  1  0  0  0  0
 18 19  1  0  0  0  0
 18 31  2  0  0  0  0
 20 19  1  1  0  0  0
 20 21  1  0  0  0  0
 21 22  1  0  0  0  0
 22 23  1  1  0  0  0
 22 25  1  0  0  0  0
 23 24  1  0  0  0  0
 25 26  1  6  0  0  0
 25 27  1  0  0  0  0
 27 28  1  1  0  0  0
 27 29  1  0  0  0  0
 29 30  1  6  0  0  0
 29 20  1  0  0  0  0
 31 13  1  0  0  0  0
 32 33  1  0  0  0  0
 32 34  2  0  0  0  0
 34  7  1  0  0  0  0
 35 36  1  1  0  0  0
 35 37  1  0  0  0  0
 37 38  1  1  0  0  0
 37 39  1  0  0  0  0
 39 40  1  6  0  0  0
 39  3  1  0  0  0  0
M  END
>  <zinc_id>
ZINC000253532636

>  <smiles>
OC[C@@H]1O[C@H](Oc2cc(O)cc(/C=C/c3ccc(O[C@@H]4O[C@H](CO)[C@H](O)[C@@H](O)[C@@H]4O)cc3O)c2)[C@@H](O)[C@H](O)[C@H]1O

$$$$
