
 OpenBabel05042123343D

 40 43  0  0  0  0  0  0  0  0999 V2000
   -7.4972    2.8098   -1.6822 O   0  0  0  0  0  0  0  0  0  0  0  0
   -7.2457    2.6200   -1.0649 C   0  0  0  0  0  0  0  0  0  0  0  0
   -7.2369    0.9592   -1.1057 C   0  0  1  0  0  0  0  0  0  0  0  0
   -5.7484    0.9377   -1.4202 O   0  0  0  0  0  0  0  0  0  0  0  0
   -5.3371   -0.4913   -0.9603 C   0  0  1  0  0  0  0  0  0  0  0  0
   -5.1595   -0.0218    0.5232 O   0  0  0  0  0  0  0  0  0  0  0  0
   -3.7944    0.1813    0.6159 C   0  0  0  0  0  0  0  0  0  0  0  0
   -2.9127   -0.5818    1.3738 C   0  0  0  0  0  0  0  0  0  0  0  0
   -1.8623   -1.1223    0.6788 C   0  0  0  0  0  0  0  0  0  0  0  0
   -1.4843   -0.4895   -0.5139 C   0  0  0  0  0  0  0  0  0  0  0  0
   -0.3041   -1.0481   -1.1716 C   0  0  0  0  0  0  0  0  0  0  0  0
    0.4039   -2.0668   -0.6787 C   0  0  0  0  0  0  0  0  0  0  0  0
    1.6816   -1.8794    0.0576 C   0  0  0  0  0  0  0  0  0  0  0  0
    1.6746   -1.6438    1.4385 C   0  0  0  0  0  0  0  0  0  0  0  0
    2.1170   -0.4371    1.9711 C   0  0  0  0  0  0  0  0  0  0  0  0
    1.4888    0.2150    3.0371 O   0  0  0  0  0  0  0  0  0  0  0  0
    3.0541    0.2791    1.2796 C   0  0  0  0  0  0  0  0  0  0  0  0
    3.4070   -0.1654    0.0170 C   0  0  0  0  0  0  0  0  0  0  0  0
    4.7226   -0.0391   -0.4420 O   0  0  0  0  0  0  0  0  0  0  0  0
    5.2250    1.4136   -0.0566 C   0  0  1  0  0  0  0  0  0  0  0  0
    6.2036    1.0470    1.0549 O   0  0  0  0  0  0  0  0  0  0  0  0
    7.4714    0.4088    0.6084 C   0  0  1  0  0  0  0  0  0  0  0  0
    7.5219   -0.5601    1.9783 C   0  0  0  0  0  0  0  0  0  0  0  0
    8.7694   -0.3317    2.5258 O   0  0  0  0  0  0  0  0  0  0  0  0
    6.5353   -0.7799   -0.2277 C   0  0  2  0  0  0  0  0  0  0  0  0
    7.7307   -1.7002   -0.3258 O   0  0  0  0  0  0  0  0  0  0  0  0
    7.0047    0.0267   -1.6612 C   0  0  1  0  0  0  0  0  0  0  0  0
    5.7878   -0.4520   -2.4578 O   0  0  0  0  0  0  0  0  0  0  0  0
    6.3020    1.5810   -1.4359 C   0  0  2  0  0  0  0  0  0  0  0  0
    7.4578    2.1845   -0.6467 O   0  0  0  0  0  0  0  0  0  0  0  0
    2.6608   -1.1584   -0.6068 C   0  0  0  0  0  0  0  0  0  0  0  0
   -1.7471    0.8845   -0.4799 C   0  0  0  0  0  0  0  0  0  0  0  0
   -1.0846    1.7128   -1.3589 O   0  0  0  0  0  0  0  0  0  0  0  0
   -3.0911    1.1062   -0.1543 C   0  0  0  0  0  0  0  0  0  0  0  0
   -6.9777   -1.0971   -0.9273 C   0  0  1  0  0  0  0  0  0  0  0  0
   -6.4929   -2.4990   -0.5996 O   0  0  0  0  0  0  0  0  0  0  0  0
   -7.5105   -0.7475    0.6776 C   0  0  1  0  0  0  0  0  0  0  0  0
   -6.3290   -1.3502    1.4104 O   0  0  0  0  0  0  0  0  0  0  0  0
   -7.0007    0.9047    0.6223 C   0  0  2  0  0  0  0  0  0  0  0  0
   -8.4039    1.3908    0.8480 O   0  0  0  0  0  0  0  0  0  0  0  0
  1  2  1  0  0  0  0
  3  2  1  1  0  0  0
  3  4  1  0  0  0  0
  4  5  1  0  0  0  0
  5  6  1  1  0  0  0
  5 35  1  0  0  0  0
  6  7  1  0  0  0  0
  7  8  2  0  0  0  0
  8  9  1  0  0  0  0
  9 10  2  0  0  0  0
 10 11  1  0  0  0  0
 10 32  1  0  0  0  0
 11 12  2  0  0  0  0
 12 13  1  0  0  0  0
 13 14  2  0  0  0  0
 14 15  1  0  0  0  0
 15 16  1  0  0  0  0
 15 17  2  0  0  0  0
 17 18  1  0  0  0  0
 18 19  1  0  0  0  0
 18 31  2  0  0  0  0
 20 19  1  6  0  0  0
 20 21  1  0  0  0  0
 21 22  1  0  0  0  0
 22 23  1  1  0  0  0
 22 25  1  0  0  0  0
 23 24  1  0  0  0  0
 25 26  1  6  0  0  0
 25 27  1  0  0  0  0
 27 28  1  6  0  0  0
 27 29  1  0  0  0  0
 29 30  1  1  0  0  0
 29 20  1  0  0  0  0
 31 13  1  0  0  0  0
 32 33  1  0  0  0  0
 32 34  2  0  0  0  0
 34  7  1  0  0  0  0
 35 36  1  1  0  0  0
 35 37  1  0  0  0  0
 37 38  1  1  0  0  0
 37 39  1  0  0  0  0
 39 40  1  1  0  0  0
 39  3  1  0  0  0  0
M  END
>  <zinc_id>
ZINC000253532637

>  <smiles>
OC[C@@H]1O[C@H](Oc2cc(O)cc(/C=C/c3ccc(O[C@@H]4O[C@H](CO)[C@@H](O)[C@H](O)[C@@H]4O)cc3O)c2)[C@@H](O)[C@H](O)[C@H]1O

$$$$
