
 OpenBabel05042123343D

 40 43  0  0  0  0  0  0  0  0999 V2000
    6.8905   -0.0379    0.3852 O   0  0  0  0  0  0  0  0  0  0  0  0
    6.8952   -0.0839    0.1906 C   0  0  0  0  0  0  0  0  0  0  0  0
    7.3031   -1.0873   -0.9715 C   0  0  1  0  0  0  0  0  0  0  0  0
    5.8999   -1.0183   -1.3642 O   0  0  0  0  0  0  0  0  0  0  0  0
    5.7273    0.4015   -0.8769 C   0  0  1  0  0  0  0  0  0  0  0  0
    4.7951   -0.0785    0.2732 O   0  0  0  0  0  0  0  0  0  0  0  0
    3.4773   -0.0343   -0.1929 C   0  0  0  0  0  0  0  0  0  0  0  0
    3.1854   -0.6857   -1.3886 C   0  0  0  0  0  0  0  0  0  0  0  0
    1.8695   -0.6967   -1.8351 C   0  0  0  0  0  0  0  0  0  0  0  0
    0.9168    0.1535   -1.2929 C   0  0  0  0  0  0  0  0  0  0  0  0
   -0.4157   -0.4203   -1.0787 C   0  0  0  0  0  0  0  0  0  0  0  0
   -0.6267   -1.5314   -0.4107 C   0  0  0  0  0  0  0  0  0  0  0  0
   -1.4827   -1.5953    0.7805 C   0  0  0  0  0  0  0  0  0  0  0  0
   -1.0092   -1.1720    2.0190 C   0  0  0  0  0  0  0  0  0  0  0  0
   -1.7563   -0.2399    2.7292 C   0  0  0  0  0  0  0  0  0  0  0  0
   -1.2325    0.4419    3.8166 O   0  0  0  0  0  0  0  0  0  0  0  0
   -3.1013   -0.0689    2.4675 C   0  0  0  0  0  0  0  0  0  0  0  0
   -3.6806   -0.8576    1.5391 C   0  0  0  0  0  0  0  0  0  0  0  0
   -4.9107   -0.8211    1.3328 O   0  0  0  0  0  0  0  0  0  0  0  0
   -6.0197    0.1898    1.7951 C   0  0  1  0  0  0  0  0  0  0  0  0
   -5.7019    1.0051    0.6331 O   0  0  0  0  0  0  0  0  0  0  0  0
   -6.4447    1.9785   -0.1077 C   0  0  1  0  0  0  0  0  0  0  0  0
   -5.6676    1.5347   -1.5091 C   0  0  0  0  0  0  0  0  0  0  0  0
   -6.3537    1.8534   -2.5898 O   0  0  0  0  0  0  0  0  0  0  0  0
   -7.8783    1.0828   -0.3980 C   0  0  2  0  0  0  0  0  0  0  0  0
   -8.1831    1.2829    1.0469 O   0  0  0  0  0  0  0  0  0  0  0  0
   -7.3309   -0.5324   -0.4561 C   0  0  1  0  0  0  0  0  0  0  0  0
   -5.8422   -0.4410   -0.7171 O   0  0  0  0  0  0  0  0  0  0  0  0
   -7.1359   -1.0159    1.1852 C   0  0  2  0  0  0  0  0  0  0  0  0
   -8.4079   -0.4695    1.7608 O   0  0  0  0  0  0  0  0  0  0  0  0
   -2.8711   -1.6395    0.7277 C   0  0  0  0  0  0  0  0  0  0  0  0
    1.4129    1.1444   -0.4538 C   0  0  0  0  0  0  0  0  0  0  0  0
    0.4810    1.9395    0.2156 O   0  0  0  0  0  0  0  0  0  0  0  0
    2.6616    1.0274    0.1487 C   0  0  0  0  0  0  0  0  0  0  0  0
    7.0629    0.7549    0.1618 C   0  0  1  0  0  0  0  0  0  0  0  0
    8.0381   -0.3963    0.2360 O   0  0  0  0  0  0  0  0  0  0  0  0
    7.9606    1.4503   -1.0973 C   0  0  2  0  0  0  0  0  0  0  0  0
    6.8096    2.2291   -1.6834 O   0  0  0  0  0  0  0  0  0  0  0  0
    7.9469    0.0612   -2.1072 C   0  0  2  0  0  0  0  0  0  0  0  0
    6.7190    0.3562   -2.9134 O   0  0  0  0  0  0  0  0  0  0  0  0
  1  2  1  0  0  0  0
  3  2  1  1  0  0  0
  3  4  1  0  0  0  0
  4  5  1  0  0  0  0
  5  6  1  1  0  0  0
  5 35  1  0  0  0  0
  6  7  1  0  0  0  0
  7  8  2  0  0  0  0
  8  9  1  0  0  0  0
  9 10  2  0  0  0  0
 10 11  1  0  0  0  0
 10 32  1  0  0  0  0
 11 12  2  0  0  0  0
 12 13  1  0  0  0  0
 13 14  2  0  0  0  0
 14 15  1  0  0  0  0
 15 16  1  0  0  0  0
 15 17  2  0  0  0  0
 17 18  1  0  0  0  0
 18 19  1  0  0  0  0
 18 31  2  0  0  0  0
 20 19  1  6  0  0  0
 20 21  1  0  0  0  0
 21 22  1  0  0  0  0
 22 23  1  6  0  0  0
 22 25  1  0  0  0  0
 23 24  1  0  0  0  0
 25 26  1  1  0  0  0
 25 27  1  0  0  0  0
 27 28  1  6  0  0  0
 27 29  1  0  0  0  0
 29 30  1  1  0  0  0
 29 20  1  0  0  0  0
 31 13  1  0  0  0  0
 32 33  1  0  0  0  0
 32 34  2  0  0  0  0
 34  7  1  0  0  0  0
 35 36  1  6  0  0  0
 35 37  1  0  0  0  0
 37 38  1  6  0  0  0
 37 39  1  0  0  0  0
 39 40  1  6  0  0  0
 39  3  1  0  0  0  0
M  END
>  <zinc_id>
ZINC000253532638

>  <smiles>
OC[C@@H]1O[C@H](Oc2cc(O)cc(/C=C/c3ccc(O[C@@H]4O[C@H](CO)[C@@H](O)[C@@H](O)[C@@H]4O)cc3O)c2)[C@@H](O)[C@H](O)[C@H]1O

$$$$
