
 OpenBabel05042123343D

 40 43  0  0  0  0  0  0  0  0999 V2000
   -7.8370    1.3398   -0.9736 O   0  0  0  0  0  0  0  0  0  0  0  0
   -7.6374    1.3241   -0.6801 C   0  0  0  0  0  0  0  0  0  0  0  0
   -6.0887    0.8151   -0.3743 C   0  0  1  0  0  0  0  0  0  0  0  0
   -6.1640    0.6505    1.1443 O   0  0  0  0  0  0  0  0  0  0  0  0
   -5.2510   -0.5896    1.0789 C   0  0  1  0  0  0  0  0  0  0  0  0
   -4.6733   -0.3504    2.5198 O   0  0  0  0  0  0  0  0  0  0  0  0
   -3.2834   -0.2918    2.2719 C   0  0  0  0  0  0  0  0  0  0  0  0
   -2.6883    0.9442    2.0032 C   0  0  0  0  0  0  0  0  0  0  0  0
   -1.9857    1.1565    0.8161 C   0  0  0  0  0  0  0  0  0  0  0  0
   -1.9402    0.0654   -0.0698 C   0  0  0  0  0  0  0  0  0  0  0  0
   -1.0786    0.3312   -1.2377 C   0  0  0  0  0  0  0  0  0  0  0  0
   -0.1345    1.2373   -1.2737 C   0  0  0  0  0  0  0  0  0  0  0  0
    1.3128    1.0275   -1.0460 C   0  0  0  0  0  0  0  0  0  0  0  0
    1.7678    0.6197    0.2198 C   0  0  0  0  0  0  0  0  0  0  0  0
    2.3346   -0.6513    0.3683 C   0  0  0  0  0  0  0  0  0  0  0  0
    2.4688   -1.2608    1.6114 O   0  0  0  0  0  0  0  0  0  0  0  0
    3.1940   -0.9531   -0.6916 C   0  0  0  0  0  0  0  0  0  0  0  0
    3.3229   -0.1072   -1.7899 C   0  0  0  0  0  0  0  0  0  0  0  0
    4.5667    0.2551   -2.3270 O   0  0  0  0  0  0  0  0  0  0  0  0
    5.4792    0.7374   -1.1423 C   0  0  1  0  0  0  0  0  0  0  0  0
    6.1661   -0.6389   -1.0823 O   0  0  0  0  0  0  0  0  0  0  0  0
    6.1986   -0.2636    0.3805 C   0  0  1  0  0  0  0  0  0  0  0  0
    7.2495   -1.4810    0.8130 C   0  0  0  0  0  0  0  0  0  0  0  0
    6.8851   -1.6850    2.1625 O   0  0  0  0  0  0  0  0  0  0  0  0
    7.4757    0.9045    0.3736 C   0  0  2  0  0  0  0  0  0  0  0  0
    6.5799    2.1245    0.2381 O   0  0  0  0  0  0  0  0  0  0  0  0
    8.0880    0.8847   -1.2320 C   0  0  1  0  0  0  0  0  0  0  0  0
    8.0790   -0.6252   -1.4291 O   0  0  0  0  0  0  0  0  0  0  0  0
    6.7270    1.2424   -2.2207 C   0  0  2  0  0  0  0  0  0  0  0  0
    6.6856    2.7041   -1.8360 O   0  0  0  0  0  0  0  0  0  0  0  0
    2.1642    0.6177   -2.0660 C   0  0  0  0  0  0  0  0  0  0  0  0
   -1.6364   -1.0931    0.6654 C   0  0  0  0  0  0  0  0  0  0  0  0
   -1.0262   -2.1961    0.0718 O   0  0  0  0  0  0  0  0  0  0  0  0
   -2.6178   -1.3404    1.6334 C   0  0  0  0  0  0  0  0  0  0  0  0
   -6.4623   -1.7159    1.6332 C   0  0  1  0  0  0  0  0  0  0  0  0
   -7.0170   -0.8327    2.7113 O   0  0  0  0  0  0  0  0  0  0  0  0
   -7.5935   -1.2860    0.3853 C   0  0  1  0  0  0  0  0  0  0  0  0
   -7.9935    0.0380    0.9507 O   0  0  0  0  0  0  0  0  0  0  0  0
   -6.3366   -0.8671   -0.7205 C   0  0  1  0  0  0  0  0  0  0  0  0
   -7.3002   -0.6471   -1.8599 O   0  0  0  0  0  0  0  0  0  0  0  0
  1  2  1  0  0  0  0
  3  2  1  6  0  0  0
  3  4  1  0  0  0  0
  4  5  1  0  0  0  0
  5  6  1  1  0  0  0
  5 35  1  0  0  0  0
  6  7  1  0  0  0  0
  7  8  2  0  0  0  0
  8  9  1  0  0  0  0
  9 10  2  0  0  0  0
 10 11  1  0  0  0  0
 10 32  1  0  0  0  0
 11 12  2  0  0  0  0
 12 13  1  0  0  0  0
 13 14  2  0  0  0  0
 14 15  1  0  0  0  0
 15 16  1  0  0  0  0
 15 17  2  0  0  0  0
 17 18  1  0  0  0  0
 18 19  1  0  0  0  0
 18 31  2  0  0  0  0
 20 19  1  6  0  0  0
 20 21  1  0  0  0  0
 21 22  1  0  0  0  0
 22 23  1  1  0  0  0
 22 25  1  0  0  0  0
 23 24  1  0  0  0  0
 25 26  1  6  0  0  0
 25 27  1  0  0  0  0
 27 28  1  6  0  0  0
 27 29  1  0  0  0  0
 29 30  1  1  0  0  0
 29 20  1  0  0  0  0
 31 13  1  0  0  0  0
 32 33  1  0  0  0  0
 32 34  2  0  0  0  0
 34  7  1  0  0  0  0
 35 36  1  1  0  0  0
 35 37  1  0  0  0  0
 37 38  1  1  0  0  0
 37 39  1  0  0  0  0
 39 40  1  6  0  0  0
 39  3  1  0  0  0  0
M  END
>  <zinc_id>
ZINC000253532639

>  <smiles>
OC[C@@H]1O[C@H](Oc2cc(O)cc(/C=C/c3ccc(O[C@@H]4O[C@H](CO)[C@H](O)[C@H](O)[C@@H]4O)cc3O)c2)[C@@H](O)[C@H](O)[C@H]1O

$$$$
