
 OpenBabel05042123343D

 28 30  0  0  0  0  0  0  0  0999 V2000
   -4.2814   -3.3053    1.3392 C   0  0  0  0  0  0  0  0  0  0  0  0
   -5.0330   -2.1222    1.3483 O   0  0  0  0  0  0  0  0  0  0  0  0
   -4.5186   -0.9362    0.8409 C   0  0  0  0  0  0  0  0  0  0  0  0
   -3.8324   -0.1398    1.7499 C   0  0  0  0  0  0  0  0  0  0  0  0
   -2.9289    0.7542    1.2164 C   0  0  0  0  0  0  0  0  0  0  0  0
   -2.3453    0.5953   -0.0360 C   0  0  0  0  0  0  0  0  0  0  0  0
   -0.9346    0.7508   -0.2939 C   0  0  0  0  0  0  0  0  0  0  0  0
   -0.1932   -0.1609   -0.9274 C   0  0  0  0  0  0  0  0  0  0  0  0
    1.2465   -0.0925   -0.6847 C   0  0  0  0  0  0  0  0  0  0  0  0
    2.0772   -1.1182   -1.1243 C   0  0  0  0  0  0  0  0  0  0  0  0
    3.2039   -1.4611   -0.3836 C   0  0  0  0  0  0  0  0  0  0  0  0
    4.1110   -2.4177   -0.7627 O   0  0  0  0  0  0  0  0  0  0  0  0
    4.6195   -2.4925   -2.0924 C   0  0  0  0  0  0  0  0  0  0  0  0
    3.3441   -0.9500    0.9039 C   0  0  0  0  0  0  0  0  0  0  0  0
    3.7382   -1.7599    1.9743 O   0  0  0  0  0  0  0  0  0  0  0  0
    2.7626   -2.2130    2.8766 C   0  0  0  0  0  0  0  0  0  0  0  0
    2.7100    0.2766    1.0856 C   0  0  0  0  0  0  0  0  0  0  0  0
    1.8615    0.8150    0.1110 C   0  0  0  0  0  0  0  0  0  0  0  0
    0.8927    1.9617    0.7964 C   0  0  1  0  0  0  0  0  0  0  0  0
    1.7118    3.1998    0.0066 C   0  0  0  0  0  0  0  0  0  0  0  0
    0.5071    4.5019    0.0336 Cl  0  0  0  0  0  0  0  0  0  0  0  0
    3.1291    3.5257    0.9539 Cl  0  0  0  0  0  0  0  0  0  0  0  0
    1.9365    2.6855   -1.6265 Cl  0  0  0  0  0  0  0  0  0  0  0  0
   -0.2133    1.9502   -0.3299 O   0  0  0  0  0  0  0  0  0  0  0  0
   -3.1576   -0.0855   -0.9391 C   0  0  0  0  0  0  0  0  0  0  0  0
   -2.8027   -0.0466   -2.2854 O   0  0  0  0  0  0  0  0  0  0  0  0
   -3.2930   -0.9892   -3.2325 C   0  0  0  0  0  0  0  0  0  0  0  0
   -4.3174   -0.7262   -0.5182 C   0  0  0  0  0  0  0  0  0  0  0  0
  1  2  1  0  0  0  0
  2  3  1  0  0  0  0
  3  4  2  0  0  0  0
  4  5  1  0  0  0  0
  5  6  2  0  0  0  0
  6  7  1  0  0  0  0
  6 25  1  0  0  0  0
  7  8  2  0  0  0  0
  8  9  1  0  0  0  0
  9 10  2  0  0  0  0
 10 11  1  0  0  0  0
 11 12  1  0  0  0  0
 11 14  2  0  0  0  0
 12 13  1  0  0  0  0
 14 15  1  0  0  0  0
 14 17  1  0  0  0  0
 15 16  1  0  0  0  0
 17 18  2  0  0  0  0
 18 19  1  0  0  0  0
 18  9  1  0  0  0  0
 19 20  1  6  0  0  0
 19 24  1  0  0  0  0
 20 21  1  0  0  0  0
 20 22  1  0  0  0  0
 20 23  1  0  0  0  0
 24  7  1  0  0  0  0
 25 26  1  0  0  0  0
 25 28  2  0  0  0  0
 26 27  1  0  0  0  0
 28  3  1  0  0  0  0
M  END
>  <zinc_id>
ZINC000002066514

>  <smiles>
COc1ccc(C2=Cc3cc(OC)c(OC)cc3[C@@H](C(Cl)(Cl)Cl)O2)c(OC)c1

$$$$
