
 OpenBabel05042123343D

 29 31  0  0  0  0  0  0  0  0999 V2000
   -2.6376   -0.7501    2.4940 O   0  0  0  0  0  0  0  0  0  0  0  0
   -3.3346   -0.5806    2.3986 C   0  0  0  0  0  0  0  0  0  0  0  0
   -3.3166    0.4718    1.1052 C   0  0  1  0  0  0  0  0  0  0  0  0
   -3.6532   -0.5914    0.0684 O   0  0  0  0  0  0  0  0  0  0  0  0
   -3.1202    0.7436   -0.5277 C   0  0  1  0  0  0  0  0  0  0  0  0
   -2.4722   -0.0148   -1.7467 O   0  0  0  0  0  0  0  0  0  0  0  0
   -1.2994   -0.5713   -1.2131 C   0  0  0  0  0  0  0  0  0  0  0  0
   -1.2437   -1.8445   -0.7002 C   0  0  0  0  0  0  0  0  0  0  0  0
   -0.4117   -2.2146    0.3438 C   0  0  0  0  0  0  0  0  0  0  0  0
   -0.7459   -3.1629    1.2909 O   0  0  0  0  0  0  0  0  0  0  0  0
    0.4692   -1.2167    0.7494 C   0  0  0  0  0  0  0  0  0  0  0  0
    0.7703   -0.1316   -0.0600 C   0  0  0  0  0  0  0  0  0  0  0  0
    2.1015    0.4835   -0.0578 C   0  0  0  0  0  0  0  0  0  0  0  0
    3.0903   -0.3874   -0.0748 C   0  0  0  0  0  0  0  0  0  0  0  0
    4.4922   -0.0606   -0.1265 C   0  0  0  0  0  0  0  0  0  0  0  0
    5.1817   -0.4358   -1.2388 C   0  0  0  0  0  0  0  0  0  0  0  0
    6.4225    0.1347   -1.4742 C   0  0  0  0  0  0  0  0  0  0  0  0
    6.9678    0.9267   -0.4832 C   0  0  0  0  0  0  0  0  0  0  0  0
    8.1302    1.5972   -0.7812 O   0  0  0  0  0  0  0  0  0  0  0  0
    6.3503    1.0514    0.7566 C   0  0  0  0  0  0  0  0  0  0  0  0
    5.0214    0.6689    0.9065 C   0  0  0  0  0  0  0  0  0  0  0  0
    4.2525    1.1649    1.9547 O   0  0  0  0  0  0  0  0  0  0  0  0
   -0.1995    0.2419   -0.9599 C   0  0  0  0  0  0  0  0  0  0  0  0
   -4.5879    1.1016   -1.3659 C   0  0  2  0  0  0  0  0  0  0  0  0
   -4.5309    2.5426   -0.8973 O   0  0  0  0  0  0  0  0  0  0  0  0
   -5.7477    0.7086   -0.1541 C   0  0  1  0  0  0  0  0  0  0  0  0
   -5.5541   -0.8012   -0.1745 O   0  0  0  0  0  0  0  0  0  0  0  0
   -4.9184    1.0870    1.3114 C   0  0  1  0  0  0  0  0  0  0  0  0
   -5.4763   -0.1607    1.9948 O   0  0  0  0  0  0  0  0  0  0  0  0
  1  2  1  0  0  0  0
  3  2  1  1  0  0  0
  3  4  1  0  0  0  0
  4  5  1  0  0  0  0
  5  6  1  6  0  0  0
  5 24  1  0  0  0  0
  6  7  1  0  0  0  0
  7  8  2  0  0  0  0
  8  9  1  0  0  0  0
  9 10  1  0  0  0  0
  9 11  2  0  0  0  0
 11 12  1  0  0  0  0
 12 13  1  0  0  0  0
 12 23  2  0  0  0  0
 13 14  2  0  0  0  0
 14 15  1  0  0  0  0
 15 16  2  0  0  0  0
 16 17  1  0  0  0  0
 17 18  2  0  0  0  0
 18 19  1  0  0  0  0
 18 20  1  0  0  0  0
 20 21  2  0  0  0  0
 21 22  1  0  0  0  0
 21 15  1  0  0  0  0
 23  7  1  0  0  0  0
 24 25  1  1  0  0  0
 24 26  1  0  0  0  0
 26 27  1  1  0  0  0
 26 28  1  0  0  0  0
 28 29  1  1  0  0  0
 28  3  1  0  0  0  0
M  END
>  <zinc_id>
ZINC000299817508

>  <smiles>
OC[C@H]1O[C@@H](Oc2cc(O)cc(/C=C/c3ccc(O)cc3O)c2)[C@H](O)[C@@H](O)[C@H]1O

$$$$
