
 OpenBabel05042123343D

 29 31  0  0  0  0  0  0  0  0999 V2000
    3.5706    3.2317    1.0247 O   0  0  0  0  0  0  0  0  0  0  0  0
    3.4837    3.0275    1.0135 C   0  0  0  0  0  0  0  0  0  0  0  0
    3.7755    1.4743    1.4527 C   0  0  1  0  0  0  0  0  0  0  0  0
    2.4990    0.8829    0.9285 O   0  0  0  0  0  0  0  0  0  0  0  0
    2.9896   -0.5343    0.6929 C   0  0  1  0  0  0  0  0  0  0  0  0
    1.5438   -1.0000    0.8393 O   0  0  0  0  0  0  0  0  0  0  0  0
    0.8655   -2.0226    0.4894 C   0  0  0  0  0  0  0  0  0  0  0  0
    1.0165   -3.3743    0.8155 C   0  0  0  0  0  0  0  0  0  0  0  0
    0.2548   -4.3224    0.1390 C   0  0  0  0  0  0  0  0  0  0  0  0
    0.4909   -5.6604    0.3931 O   0  0  0  0  0  0  0  0  0  0  0  0
   -0.7741   -3.9024   -0.6964 C   0  0  0  0  0  0  0  0  0  0  0  0
   -1.2644   -2.6470   -0.4312 C   0  0  0  0  0  0  0  0  0  0  0  0
   -0.5059   -1.7472    0.3187 C   0  0  0  0  0  0  0  0  0  0  0  0
   -1.1202   -0.4849    0.6265 C   0  0  0  0  0  0  0  0  0  0  0  0
   -2.1769   -0.1823    1.2840 C   0  0  0  0  0  0  0  0  0  0  0  0
   -3.2769    0.6541    0.7860 C   0  0  0  0  0  0  0  0  0  0  0  0
   -4.3847   -0.0359    0.3362 C   0  0  0  0  0  0  0  0  0  0  0  0
   -5.2557    0.5442   -0.5488 C   0  0  0  0  0  0  0  0  0  0  0  0
   -6.3166   -0.1141   -1.1371 O   0  0  0  0  0  0  0  0  0  0  0  0
   -5.1849    1.9101   -0.7264 C   0  0  0  0  0  0  0  0  0  0  0  0
   -4.0389    2.5921   -0.3792 C   0  0  0  0  0  0  0  0  0  0  0  0
   -3.9917    3.9652   -0.6031 O   0  0  0  0  0  0  0  0  0  0  0  0
   -3.1414    1.9753    0.4635 C   0  0  0  0  0  0  0  0  0  0  0  0
    3.0364   -0.4769   -1.0346 C   0  0  1  0  0  0  0  0  0  0  0  0
    1.6242   -0.0762   -1.2882 O   0  0  0  0  0  0  0  0  0  0  0  0
    3.6830    1.1110   -1.2138 C   0  0  1  0  0  0  0  0  0  0  0  0
    2.5370    1.9059   -0.7091 O   0  0  0  0  0  0  0  0  0  0  0  0
    4.7294    0.9790    0.1225 C   0  0  1  0  0  0  0  0  0  0  0  0
    5.3323    2.3275   -0.1780 O   0  0  0  0  0  0  0  0  0  0  0  0
  1  2  1  0  0  0  0
  3  2  1  6  0  0  0
  3  4  1  0  0  0  0
  4  5  1  0  0  0  0
  5  6  1  6  0  0  0
  5 24  1  0  0  0  0
  6  7  1  0  0  0  0
  7  8  2  0  0  0  0
  8  9  1  0  0  0  0
  9 10  1  0  0  0  0
  9 11  2  0  0  0  0
 11 12  1  0  0  0  0
 12 13  2  0  0  0  0
 13 14  1  0  0  0  0
 13  7  1  0  0  0  0
 14 15  2  0  0  0  0
 15 16  1  0  0  0  0
 16 17  2  0  0  0  0
 17 18  1  0  0  0  0
 18 19  1  0  0  0  0
 18 20  2  0  0  0  0
 20 21  1  0  0  0  0
 21 22  1  0  0  0  0
 21 23  2  0  0  0  0
 23 16  1  0  0  0  0
 24 25  1  6  0  0  0
 24 26  1  0  0  0  0
 26 27  1  1  0  0  0
 26 28  1  0  0  0  0
 28 29  1  6  0  0  0
 28  3  1  0  0  0  0
M  END
>  <zinc_id>
ZINC000299817807

>  <smiles>
OC[C@H]1O[C@@H](Oc2cc(O)ccc2/C=C/c2cc(O)cc(O)c2)[C@@H](O)[C@@H](O)[C@H]1O

$$$$
