
 OpenBabel05042123343D

 24 25  0  0  0  0  0  0  0  0999 V2000
   -6.1872   -2.0577    1.5934 C   0  0  0  0  0  0  0  0  0  0  0  0
   -5.8490   -1.3829    0.4090 O   0  0  0  0  0  0  0  0  0  0  0  0
   -4.6146   -0.7726    0.2329 C   0  0  0  0  0  0  0  0  0  0  0  0
   -3.9471   -0.2633    1.3398 C   0  0  0  0  0  0  0  0  0  0  0  0
   -2.6034    0.0626    1.2324 C   0  0  0  0  0  0  0  0  0  0  0  0
   -2.0906    0.1516   -0.0481 C   0  0  0  0  0  0  0  0  0  0  0  0
   -0.7563    0.6814   -0.2323 C   0  0  0  0  0  0  0  0  0  0  0  0
    0.2256   -0.1897   -0.4733 C   0  0  0  0  0  0  0  0  0  0  0  0
    0.0264   -1.5362    0.0165 C   0  0  0  0  0  0  0  0  0  0  0  0
    0.0815   -2.4912    0.6875 N   0  0  0  0  0  0  0  0  0  0  0  0
    1.5728    0.3997   -0.4465 C   0  0  0  0  0  0  0  0  0  0  0  0
    2.2156    0.8248   -1.5893 C   0  0  0  0  0  0  0  0  0  0  0  0
    3.4676    1.3975   -1.4033 C   0  0  0  0  0  0  0  0  0  0  0  0
    4.1941    1.1575   -0.2440 C   0  0  0  0  0  0  0  0  0  0  0  0
    5.3987    1.7996   -0.0337 O   0  0  0  0  0  0  0  0  0  0  0  0
    6.2923    1.2906    0.9414 C   0  0  0  0  0  0  0  0  0  0  0  0
    3.6641    0.3900    0.7725 C   0  0  0  0  0  0  0  0  0  0  0  0
    4.5492   -0.3692    1.5378 O   0  0  0  0  0  0  0  0  0  0  0  0
    4.6458   -1.7483    1.2074 C   0  0  0  0  0  0  0  0  0  0  0  0
    2.3362    0.0444    0.6597 C   0  0  0  0  0  0  0  0  0  0  0  0
   -2.9170    0.1344   -1.1578 C   0  0  0  0  0  0  0  0  0  0  0  0
   -2.5578    0.8422   -2.3057 O   0  0  0  0  0  0  0  0  0  0  0  0
   -3.0377    2.1765   -2.3747 C   0  0  0  0  0  0  0  0  0  0  0  0
   -4.1093   -0.5417   -1.0405 C   0  0  0  0  0  0  0  0  0  0  0  0
  1  2  1  0  0  0  0
  2  3  1  0  0  0  0
  3  4  2  0  0  0  0
  4  5  1  0  0  0  0
  5  6  2  0  0  0  0
  6  7  1  0  0  0  0
  6 21  1  0  0  0  0
  7  8  2  0  0  0  0
  8  9  1  0  0  0  0
  8 11  1  0  0  0  0
  9 10  3  0  0  0  0
 11 12  2  0  0  0  0
 12 13  1  0  0  0  0
 13 14  2  0  0  0  0
 14 15  1  0  0  0  0
 14 17  1  0  0  0  0
 15 16  1  0  0  0  0
 17 18  1  0  0  0  0
 17 20  2  0  0  0  0
 18 19  1  0  0  0  0
 20 11  1  0  0  0  0
 21 22  1  0  0  0  0
 21 24  2  0  0  0  0
 22 23  1  0  0  0  0
 24  3  1  0  0  0  0
M  END
>  <zinc_id>
ZINC000408579323

>  <smiles>
COc1ccc(/C=C(\C#N)c2ccc(OC)c(OC)c2)c(OC)c1

$$$$
