
 OpenBabel05042123343D

 26 27  0  0  0  0  0  0  0  0999 V2000
   -6.5454    2.1958   -0.3878 C   0  0  0  0  0  0  0  0  0  0  0  0
   -6.5044    1.0739    0.6413 C   0  0  0  0  0  0  0  0  0  0  0  0
   -5.6437    0.0242    0.2162 O   0  0  0  0  0  0  0  0  0  0  0  0
   -4.2889    0.2417   -0.0588 C   0  0  0  0  0  0  0  0  0  0  0  0
   -3.9235    0.0539   -1.3866 C   0  0  0  0  0  0  0  0  0  0  0  0
   -2.6632   -0.3245   -1.7725 C   0  0  0  0  0  0  0  0  0  0  0  0
   -1.6979   -0.4349   -0.7801 C   0  0  0  0  0  0  0  0  0  0  0  0
   -0.2743   -0.5588   -1.1183 C   0  0  0  0  0  0  0  0  0  0  0  0
    0.6143    0.1395   -0.4461 C   0  0  0  0  0  0  0  0  0  0  0  0
    0.1882    1.0922    0.5515 C   0  0  0  0  0  0  0  0  0  0  0  0
   -0.1208    1.9029    1.3105 N   0  0  0  0  0  0  0  0  0  0  0  0
    2.0571   -0.1319   -0.4997 C   0  0  0  0  0  0  0  0  0  0  0  0
    2.5629   -0.8250    0.5941 C   0  0  0  0  0  0  0  0  0  0  0  0
    3.9392   -0.9864    0.6699 C   0  0  0  0  0  0  0  0  0  0  0  0
    4.7718   -0.0476    0.0721 C   0  0  0  0  0  0  0  0  0  0  0  0
    6.1056   -0.3554   -0.2135 O   0  0  0  0  0  0  0  0  0  0  0  0
    6.4351   -1.6002   -0.8035 C   0  0  0  0  0  0  0  0  0  0  0  0
    4.2081    0.9619   -0.6982 C   0  0  0  0  0  0  0  0  0  0  0  0
    4.9461    2.1413   -0.7952 O   0  0  0  0  0  0  0  0  0  0  0  0
    4.3084    3.3289   -0.3542 C   0  0  0  0  0  0  0  0  0  0  0  0
    2.8405    0.9277   -0.9420 C   0  0  0  0  0  0  0  0  0  0  0  0
   -2.1218   -0.6963    0.5174 C   0  0  0  0  0  0  0  0  0  0  0  0
   -1.3618   -1.5402    1.3349 O   0  0  0  0  0  0  0  0  0  0  0  0
   -2.0170   -2.6551    1.8893 C   0  0  0  0  0  0  0  0  0  0  0  0
   -2.4090   -3.6297    0.7980 C   0  0  0  0  0  0  0  0  0  0  0  0
   -3.4055   -0.2979    0.8695 C   0  0  0  0  0  0  0  0  0  0  0  0
  1  2  1  0  0  0  0
  2  3  1  0  0  0  0
  3  4  1  0  0  0  0
  4  5  2  0  0  0  0
  5  6  1  0  0  0  0
  6  7  2  0  0  0  0
  7  8  1  0  0  0  0
  7 22  1  0  0  0  0
  8  9  2  0  0  0  0
  9 10  1  0  0  0  0
  9 12  1  0  0  0  0
 10 11  3  0  0  0  0
 12 13  2  0  0  0  0
 13 14  1  0  0  0  0
 14 15  2  0  0  0  0
 15 16  1  0  0  0  0
 15 18  1  0  0  0  0
 16 17  1  0  0  0  0
 18 19  1  0  0  0  0
 18 21  2  0  0  0  0
 19 20  1  0  0  0  0
 21 12  1  0  0  0  0
 22 23  1  0  0  0  0
 22 26  2  0  0  0  0
 23 24  1  0  0  0  0
 24 25  1  0  0  0  0
 26  4  1  0  0  0  0
M  END
>  <zinc_id>
ZINC000408581024

>  <smiles>
CCOc1ccc(/C=C(\C#N)c2ccc(OC)c(OC)c2)c(OCC)c1

$$$$
