
 OpenBabel05042123343D

 27 29  0  0  0  0  0  0  0  0999 V2000
   -5.7513    1.1373   -3.1782 C   0  0  0  0  0  0  0  0  0  0  0  0
   -5.0621    1.2316   -1.8464 C   0  0  0  0  0  0  0  0  0  0  0  0
   -4.7199    2.6492   -1.4850 C   0  0  0  0  0  0  0  0  0  0  0  0
   -3.9449    0.3753   -1.8783 O   0  0  0  0  0  0  0  0  0  0  0  0
   -3.0929    0.3815   -0.7880 C   0  0  0  0  0  0  0  0  0  0  0  0
   -3.2689    1.2081    0.3059 C   0  0  0  0  0  0  0  0  0  0  0  0
   -2.1485    1.4086    1.0950 C   0  0  0  0  0  0  0  0  0  0  0  0
   -1.0515    0.5562    1.0183 C   0  0  0  0  0  0  0  0  0  0  0  0
   -0.1662    0.6220    2.1892 C   0  0  0  0  0  0  0  0  0  0  0  0
    1.0479    1.1170    1.9467 C   0  0  0  0  0  0  0  0  0  0  0  0
    1.7366    1.9516    2.9050 C   0  0  0  0  0  0  0  0  0  0  0  0
    2.3637    2.5040    3.7146 N   0  0  0  0  0  0  0  0  0  0  0  0
    1.7899    0.3716    0.9216 C   0  0  0  0  0  0  0  0  0  0  0  0
    2.7243   -0.5218    1.4344 C   0  0  0  0  0  0  0  0  0  0  0  0
    3.7220   -1.0842    0.6843 C   0  0  0  0  0  0  0  0  0  0  0  0
    3.6866   -0.8173   -0.6792 C   0  0  0  0  0  0  0  0  0  0  0  0
    3.0783    0.3588   -1.0942 C   0  0  0  0  0  0  0  0  0  0  0  0
    2.0665    0.9055   -0.3234 C   0  0  0  0  0  0  0  0  0  0  0  0
    3.7084    0.7067   -2.2920 O   0  0  0  0  0  0  0  0  0  0  0  0
    4.1147   -0.5334   -2.8647 C   0  0  0  0  0  0  0  0  0  0  0  0
    4.2787   -1.4147   -1.7739 O   0  0  0  0  0  0  0  0  0  0  0  0
   -1.3054   -0.6649    0.4246 C   0  0  0  0  0  0  0  0  0  0  0  0
   -0.6220   -1.8306    0.7804 O   0  0  0  0  0  0  0  0  0  0  0  0
   -0.4773   -2.8034   -0.2174 C   0  0  0  0  0  0  0  0  0  0  0  0
   -1.4293   -3.9535   -0.1039 C   0  0  0  0  0  0  0  0  0  0  0  0
    0.9341   -3.1868   -0.5146 C   0  0  0  0  0  0  0  0  0  0  0  0
   -2.2117   -0.6746   -0.6275 C   0  0  0  0  0  0  0  0  0  0  0  0
  1  2  1  0  0  0  0
  2  3  1  0  0  0  0
  2  4  1  0  0  0  0
  4  5  1  0  0  0  0
  5  6  2  0  0  0  0
  6  7  1  0  0  0  0
  7  8  2  0  0  0  0
  8  9  1  0  0  0  0
  8 22  1  0  0  0  0
  9 10  2  0  0  0  0
 10 11  1  0  0  0  0
 10 13  1  0  0  0  0
 11 12  3  0  0  0  0
 13 14  2  0  0  0  0
 14 15  1  0  0  0  0
 15 16  2  0  0  0  0
 16 17  1  0  0  0  0
 17 18  2  0  0  0  0
 17 19  1  0  0  0  0
 18 13  1  0  0  0  0
 19 20  1  0  0  0  0
 20 21  1  0  0  0  0
 21 16  1  0  0  0  0
 22 23  1  0  0  0  0
 22 27  2  0  0  0  0
 23 24  1  0  0  0  0
 24 25  1  0  0  0  0
 24 26  1  0  0  0  0
 27  5  1  0  0  0  0
M  END
>  <zinc_id>
ZINC000409363353

>  <smiles>
CC(C)Oc1ccc(/C=C(/C#N)c2ccc3c(c2)OCO3)c(OC(C)C)c1

$$$$
