
 OpenBabel05042123343D

 28 30  0  0  0  0  0  0  0  0999 V2000
    7.0133   -0.2293   -0.8084 C   0  0  0  0  0  0  0  0  0  0  0  0
    6.3430    0.3874    0.2526 O   0  0  0  0  0  0  0  0  0  0  0  0
    4.9630    0.3014    0.3331 C   0  0  0  0  0  0  0  0  0  0  0  0
    4.3165    0.0304    1.5333 C   0  0  0  0  0  0  0  0  0  0  0  0
    2.9448   -0.0629    1.6065 C   0  0  0  0  0  0  0  0  0  0  0  0
    2.2008    0.0798    0.4683 C   0  0  0  0  0  0  0  0  0  0  0  0
    0.8975   -0.5532    0.3174 C   0  0  0  0  0  0  0  0  0  0  0  0
    0.3066   -0.4983   -0.8811 C   0  0  0  0  0  0  0  0  0  0  0  0
   -1.1593   -0.4374   -0.9324 C   0  0  0  0  0  0  0  0  0  0  0  0
   -1.8960   -0.0044   -1.9951 C   0  0  0  0  0  0  0  0  0  0  0  0
   -3.1698    0.4888   -1.7255 C   0  0  0  0  0  0  0  0  0  0  0  0
   -3.7947    1.1642   -2.7645 O   0  0  0  0  0  0  0  0  0  0  0  0
   -3.4375    0.9520   -4.1034 C   0  0  0  0  0  0  0  0  0  0  0  0
   -3.6529    0.6163   -0.4257 C   0  0  0  0  0  0  0  0  0  0  0  0
   -4.2762    1.8101   -0.0926 O   0  0  0  0  0  0  0  0  0  0  0  0
   -5.5224    2.0025    0.4596 C   0  0  0  0  0  0  0  0  0  0  0  0
   -3.0229   -0.2230    0.4893 C   0  0  0  0  0  0  0  0  0  0  0  0
   -1.6926   -0.4476    0.3592 C   0  0  0  0  0  0  0  0  0  0  0  0
   -1.0897   -1.8231    1.0059 C   0  0  2  0  0  0  0  0  0  0  0  0
   -1.7841   -1.5656    2.4965 C   0  0  0  0  0  0  0  0  0  0  0  0
   -3.4156   -2.1941    2.3277 Cl  0  0  0  0  0  0  0  0  0  0  0  0
   -1.6363    0.1081    2.8701 Cl  0  0  0  0  0  0  0  0  0  0  0  0
   -0.9088   -2.6598    3.5911 Cl  0  0  0  0  0  0  0  0  0  0  0  0
    0.2258   -1.0914    1.4210 O   0  0  0  0  0  0  0  0  0  0  0  0
    2.8472    0.6088   -0.6398 C   0  0  0  0  0  0  0  0  0  0  0  0
    2.1116    0.7364   -1.7955 O   0  0  0  0  0  0  0  0  0  0  0  0
    2.0664    1.9090   -2.5885 C   0  0  0  0  0  0  0  0  0  0  0  0
    4.2222    0.5949   -0.7793 C   0  0  0  0  0  0  0  0  0  0  0  0
  1  2  1  0  0  0  0
  2  3  1  0  0  0  0
  3  4  2  0  0  0  0
  4  5  1  0  0  0  0
  5  6  2  0  0  0  0
  6  7  1  0  0  0  0
  6 25  1  0  0  0  0
  7  8  2  0  0  0  0
  8  9  1  0  0  0  0
  9 10  2  0  0  0  0
 10 11  1  0  0  0  0
 11 12  1  0  0  0  0
 11 14  2  0  0  0  0
 12 13  1  0  0  0  0
 14 15  1  0  0  0  0
 14 17  1  0  0  0  0
 15 16  1  0  0  0  0
 17 18  2  0  0  0  0
 18 19  1  0  0  0  0
 18  9  1  0  0  0  0
 19 20  1  1  0  0  0
 19 24  1  0  0  0  0
 20 21  1  0  0  0  0
 20 22  1  0  0  0  0
 20 23  1  0  0  0  0
 24  7  1  0  0  0  0
 25 26  1  0  0  0  0
 25 28  2  0  0  0  0
 26 27  1  0  0  0  0
 28  3  1  0  0  0  0
M  END
>  <zinc_id>
ZINC000002066515

>  <smiles>
COc1ccc(C2=Cc3cc(OC)c(OC)cc3[C@H](C(Cl)(Cl)Cl)O2)c(OC)c1

$$$$
