
 OpenBabel05042123343D

 23 25  0  0  0  0  0  0  0  0999 V2000
    6.2475   -0.1926    0.7208 C   0  0  0  0  0  0  0  0  0  0  0  0
    5.2756    0.1020    1.6904 O   0  0  0  0  0  0  0  0  0  0  0  0
    3.9201   -0.2065    1.5441 C   0  0  0  0  0  0  0  0  0  0  0  0
    2.9325    0.5362    2.1670 C   0  0  0  0  0  0  0  0  0  0  0  0
    1.7653    0.8624    1.4923 C   0  0  0  0  0  0  0  0  0  0  0  0
    1.4797    0.3383    0.2374 C   0  0  0  0  0  0  0  0  0  0  0  0
    0.8161    1.1380   -0.8009 C   0  0  0  0  0  0  0  0  0  0  0  0
   -0.3595    0.7331   -1.2359 C   0  0  0  0  0  0  0  0  0  0  0  0
   -0.7728    1.1050   -2.5703 C   0  0  0  0  0  0  0  0  0  0  0  0
   -1.0538    1.0523   -3.7014 N   0  0  0  0  0  0  0  0  0  0  0  0
   -1.3317    0.3575   -0.2014 C   0  0  0  0  0  0  0  0  0  0  0  0
   -1.4747   -0.9563    0.2209 C   0  0  0  0  0  0  0  0  0  0  0  0
   -2.5420   -1.3918    0.9715 C   0  0  0  0  0  0  0  0  0  0  0  0
   -3.6336   -0.5435    1.0741 C   0  0  0  0  0  0  0  0  0  0  0  0
   -3.6716    0.6571    0.3836 C   0  0  0  0  0  0  0  0  0  0  0  0
   -2.4533    1.1608   -0.0337 C   0  0  0  0  0  0  0  0  0  0  0  0
   -5.0008    1.0263    0.2674 O   0  0  0  0  0  0  0  0  0  0  0  0
   -5.7083    0.4181    1.3339 C   0  0  0  0  0  0  0  0  0  0  0  0
   -4.8682   -0.6785    1.6850 O   0  0  0  0  0  0  0  0  0  0  0  0
    2.3058   -0.7002   -0.1748 C   0  0  0  0  0  0  0  0  0  0  0  0
    1.8906   -1.4656   -1.2556 O   0  0  0  0  0  0  0  0  0  0  0  0
    2.7378   -2.3625   -1.9426 C   0  0  0  0  0  0  0  0  0  0  0  0
    3.4995   -0.9897    0.4752 C   0  0  0  0  0  0  0  0  0  0  0  0
  1  2  1  0  0  0  0
  2  3  1  0  0  0  0
  3  4  2  0  0  0  0
  4  5  1  0  0  0  0
  5  6  2  0  0  0  0
  6  7  1  0  0  0  0
  6 20  1  0  0  0  0
  7  8  2  0  0  0  0
  8  9  1  0  0  0  0
  8 11  1  0  0  0  0
  9 10  3  0  0  0  0
 11 12  2  0  0  0  0
 12 13  1  0  0  0  0
 13 14  2  0  0  0  0
 14 15  1  0  0  0  0
 15 16  2  0  0  0  0
 15 17  1  0  0  0  0
 16 11  1  0  0  0  0
 17 18  1  0  0  0  0
 18 19  1  0  0  0  0
 19 14  1  0  0  0  0
 20 21  1  0  0  0  0
 20 23  2  0  0  0  0
 21 22  1  0  0  0  0
 23  3  1  0  0  0  0
M  END
>  <zinc_id>
ZINC000409365787

>  <smiles>
COc1ccc(/C=C(/C#N)c2ccc3c(c2)OCO3)c(OC)c1

$$$$
