
 OpenBabel05042123343D

 31 32  0  0  0  0  0  0  0  0999 V2000
    8.2567    1.5776   -0.4072 C   0  0  0  0  0  0  0  0  0  0  0  0
    8.2688    0.6018   -1.1357 O   0  0  0  0  0  0  0  0  0  0  0  0
    7.7840   -0.5901   -0.5796 C   0  0  0  0  0  0  0  0  0  0  0  0
    6.5532   -0.0433    0.4290 C   0  0  2  0  0  0  0  0  0  0  0  0
    7.5814   -0.0987    1.7592 C   0  0  0  0  0  0  0  0  0  0  0  0
    6.0663   -1.4862    0.6991 O   0  0  0  0  0  0  0  0  0  0  0  0
    4.7226   -1.4856    0.3518 C   0  0  0  0  0  0  0  0  0  0  0  0
    4.0661   -0.3036    1.3519 C   0  0  2  0  0  0  0  0  0  0  0  0
    4.5804   -1.1253    2.7278 C   0  0  0  0  0  0  0  0  0  0  0  0
    2.7007   -1.0256    1.4078 O   0  0  0  0  0  0  0  0  0  0  0  0
    2.3630   -1.3918    0.1815 C   0  0  0  0  0  0  0  0  0  0  0  0
    1.5959   -0.1299   -0.6049 C   0  0  2  0  0  0  0  0  0  0  0  0
    1.3721    0.7931    0.7817 C   0  0  0  0  0  0  0  0  0  0  0  0
    0.1838   -0.7944   -0.4376 O   0  0  0  0  0  0  0  0  0  0  0  0
   -0.7830    0.2224   -0.4966 C   0  0  0  0  0  0  0  0  0  0  0  0
   -0.5780    1.4088   -1.1954 C   0  0  0  0  0  0  0  0  0  0  0  0
   -1.4216    2.4965   -0.9825 C   0  0  0  0  0  0  0  0  0  0  0  0
   -1.0468    3.6799   -1.5854 O   0  0  0  0  0  0  0  0  0  0  0  0
   -2.0624    2.5376    0.2532 C   0  0  0  0  0  0  0  0  0  0  0  0
   -2.0365    1.4221    1.0878 C   0  0  0  0  0  0  0  0  0  0  0  0
   -1.6296    0.1779    0.6110 C   0  0  0  0  0  0  0  0  0  0  0  0
   -2.4959   -1.0073    0.6164 C   0  0  0  0  0  0  0  0  0  0  0  0
   -3.3175   -1.3989   -0.3000 C   0  0  0  0  0  0  0  0  0  0  0  0
   -4.7235   -1.1202   -0.5031 C   0  0  0  0  0  0  0  0  0  0  0  0
   -5.7527   -1.9464   -0.0654 C   0  0  0  0  0  0  0  0  0  0  0  0
   -7.0570   -1.4853    0.0268 C   0  0  0  0  0  0  0  0  0  0  0  0
   -8.1292   -2.2784    0.3669 O   0  0  0  0  0  0  0  0  0  0  0  0
   -7.2573   -0.1126    0.0268 C   0  0  0  0  0  0  0  0  0  0  0  0
   -6.2703    0.7315   -0.4683 C   0  0  0  0  0  0  0  0  0  0  0  0
   -6.3318    2.1062   -0.3107 O   0  0  0  0  0  0  0  0  0  0  0  0
   -5.2019    0.0681   -1.0617 C   0  0  0  0  0  0  0  0  0  0  0  0
  1  2  1  0  0  0  0
  2  3  1  0  0  0  0
  4  3  1  0  0  0  0
  4  5  1  1  0  0  0
  4  6  1  0  0  0  0
  6  7  1  0  0  0  0
  8  7  1  0  0  0  0
  8  9  1  1  0  0  0
  8 10  1  0  0  0  0
 10 11  1  0  0  0  0
 12 11  1  0  0  0  0
 12 13  1  1  0  0  0
 12 14  1  0  0  0  0
 14 15  1  0  0  0  0
 15 16  2  0  0  0  0
 16 17  1  0  0  0  0
 17 18  1  0  0  0  0
 17 19  2  0  0  0  0
 19 20  1  0  0  0  0
 20 21  2  0  0  0  0
 21 22  1  0  0  0  0
 21 15  1  0  0  0  0
 22 23  2  0  0  0  0
 23 24  1  0  0  0  0
 24 25  2  0  0  0  0
 25 26  1  0  0  0  0
 26 27  1  0  0  0  0
 26 28  2  0  0  0  0
 28 29  1  0  0  0  0
 29 30  1  0  0  0  0
 29 31  2  0  0  0  0
 31 24  1  0  0  0  0
M  END
>  <zinc_id>
ZINC001229765255

>  <smiles>
COC[C@H](C)OC[C@H](C)OC[C@H](C)Oc1cc(O)ccc1/C=C/c1cc(O)cc(O)c1

$$$$
