
 OpenBabel05042123343D

 31 32  0  0  0  0  0  0  0  0999 V2000
    6.0778    0.9258    1.7322 C   0  0  0  0  0  0  0  0  0  0  0  0
    6.5613    0.3948    1.5726 O   0  0  0  0  0  0  0  0  0  0  0  0
    7.1884    0.0977    0.3516 C   0  0  0  0  0  0  0  0  0  0  0  0
    5.9721   -0.7491   -0.3771 C   0  0  2  0  0  0  0  0  0  0  0  0
    6.5842   -0.4285   -1.8762 C   0  0  0  0  0  0  0  0  0  0  0  0
    5.0581    0.4570   -0.3275 O   0  0  0  0  0  0  0  0  0  0  0  0
    4.9105    1.0170   -1.5097 C   0  0  0  0  0  0  0  0  0  0  0  0
    3.3243    1.2953   -1.8322 C   0  0  1  0  0  0  0  0  0  0  0  0
    3.4021    0.3859   -3.2079 C   0  0  0  0  0  0  0  0  0  0  0  0
    2.8343    0.1050   -1.0266 O   0  0  0  0  0  0  0  0  0  0  0  0
    1.5471   -0.0191   -1.5124 C   0  0  0  0  0  0  0  0  0  0  0  0
    0.9335    1.5070   -1.5665 C   0  0  2  0  0  0  0  0  0  0  0  0
    1.3686    1.8197   -0.0098 C   0  0  0  0  0  0  0  0  0  0  0  0
   -0.4790    1.0566   -1.1584 O   0  0  0  0  0  0  0  0  0  0  0  0
   -0.5975    0.1629   -0.1248 C   0  0  0  0  0  0  0  0  0  0  0  0
   -0.5365   -1.2182   -0.3081 C   0  0  0  0  0  0  0  0  0  0  0  0
   -0.1380   -1.9940    0.7753 C   0  0  0  0  0  0  0  0  0  0  0  0
   -0.5785   -3.3224    0.7296 O   0  0  0  0  0  0  0  0  0  0  0  0
    0.0715   -1.3464    1.9891 C   0  0  0  0  0  0  0  0  0  0  0  0
   -0.4949   -0.0921    2.2006 C   0  0  0  0  0  0  0  0  0  0  0  0
   -0.8662    0.7134    1.1280 C   0  0  0  0  0  0  0  0  0  0  0  0
   -2.0999    1.5270    1.1759 C   0  0  0  0  0  0  0  0  0  0  0  0
   -3.1961    1.1279    1.7730 C   0  0  0  0  0  0  0  0  0  0  0  0
   -4.4620    0.8192    1.0960 C   0  0  0  0  0  0  0  0  0  0  0  0
   -5.3392   -0.1355    1.5969 C   0  0  0  0  0  0  0  0  0  0  0  0
   -6.5422   -0.3772    0.9439 C   0  0  0  0  0  0  0  0  0  0  0  0
   -7.7190   -0.6684    1.6409 O   0  0  0  0  0  0  0  0  0  0  0  0
   -6.7266    0.1055   -0.3461 C   0  0  0  0  0  0  0  0  0  0  0  0
   -5.6322    0.6203   -0.9976 C   0  0  0  0  0  0  0  0  0  0  0  0
   -5.7651    1.0898   -2.2976 O   0  0  0  0  0  0  0  0  0  0  0  0
   -4.6610    1.1960   -0.2270 C   0  0  0  0  0  0  0  0  0  0  0  0
  1  2  1  0  0  0  0
  2  3  1  0  0  0  0
  4  3  1  0  0  0  0
  4  5  1  6  0  0  0
  4  6  1  0  0  0  0
  6  7  1  0  0  0  0
  8  7  1  0  0  0  0
  8  9  1  6  0  0  0
  8 10  1  0  0  0  0
 10 11  1  0  0  0  0
 12 11  1  0  0  0  0
 12 13  1  1  0  0  0
 12 14  1  0  0  0  0
 14 15  1  0  0  0  0
 15 16  2  0  0  0  0
 16 17  1  0  0  0  0
 17 18  1  0  0  0  0
 17 19  2  0  0  0  0
 19 20  1  0  0  0  0
 20 21  2  0  0  0  0
 21 22  1  0  0  0  0
 21 15  1  0  0  0  0
 22 23  2  0  0  0  0
 23 24  1  0  0  0  0
 24 25  2  0  0  0  0
 25 26  1  0  0  0  0
 26 27  1  0  0  0  0
 26 28  2  0  0  0  0
 28 29  1  0  0  0  0
 29 30  1  0  0  0  0
 29 31  2  0  0  0  0
 31 24  1  0  0  0  0
M  END
>  <zinc_id>
ZINC001229765256

>  <smiles>
COC[C@H](C)OC[C@@H](C)OC[C@H](C)Oc1cc(O)ccc1/C=C/c1cc(O)cc(O)c1

$$$$
