
 OpenBabel05042123343D

 31 32  0  0  0  0  0  0  0  0999 V2000
    6.9277    2.9526    0.1240 C   0  0  0  0  0  0  0  0  0  0  0  0
    5.7174    2.5832   -0.0148 O   0  0  0  0  0  0  0  0  0  0  0  0
    5.6835    1.4397   -0.8308 C   0  0  0  0  0  0  0  0  0  0  0  0
    6.4539    0.3381    0.1804 C   0  0  2  0  0  0  0  0  0  0  0  0
    6.5336   -0.8169   -1.0442 C   0  0  0  0  0  0  0  0  0  0  0  0
    5.1047   -0.1663    0.7434 O   0  0  0  0  0  0  0  0  0  0  0  0
    4.4651   -0.8485   -0.2129 C   0  0  0  0  0  0  0  0  0  0  0  0
    3.2521    0.2051   -0.6984 C   0  0  1  0  0  0  0  0  0  0  0  0
    2.6457   -0.9411   -1.7696 C   0  0  0  0  0  0  0  0  0  0  0  0
    2.3155   -0.2916    0.4291 O   0  0  0  0  0  0  0  0  0  0  0  0
    1.2245    0.5242    0.0682 C   0  0  0  0  0  0  0  0  0  0  0  0
    0.1807   -0.0894    1.2270 C   0  0  1  0  0  0  0  0  0  0  0  0
   -0.4918    1.4221    1.4977 C   0  0  0  0  0  0  0  0  0  0  0  0
   -0.8932   -0.4156    0.1345 O   0  0  0  0  0  0  0  0  0  0  0  0
   -1.2028   -1.7571    0.1933 C   0  0  0  0  0  0  0  0  0  0  0  0
   -0.5050   -2.6621   -0.5478 C   0  0  0  0  0  0  0  0  0  0  0  0
   -0.6461   -4.0010   -0.3019 C   0  0  0  0  0  0  0  0  0  0  0  0
    0.0073   -4.8537   -1.1611 O   0  0  0  0  0  0  0  0  0  0  0  0
   -1.5733   -4.3700    0.6336 C   0  0  0  0  0  0  0  0  0  0  0  0
   -2.5842   -3.4662    0.9480 C   0  0  0  0  0  0  0  0  0  0  0  0
   -2.4703   -2.1144    0.6475 C   0  0  0  0  0  0  0  0  0  0  0  0
   -3.5673   -1.1812    0.6451 C   0  0  0  0  0  0  0  0  0  0  0  0
   -4.1917   -0.7232   -0.4400 C   0  0  0  0  0  0  0  0  0  0  0  0
   -4.4094    0.7117   -0.6659 C   0  0  0  0  0  0  0  0  0  0  0  0
   -3.5393    1.4939   -1.4198 C   0  0  0  0  0  0  0  0  0  0  0  0
   -2.9904    2.6684   -0.9117 C   0  0  0  0  0  0  0  0  0  0  0  0
   -2.0321    3.3356   -1.6729 O   0  0  0  0  0  0  0  0  0  0  0  0
   -3.6248    3.2846    0.1613 C   0  0  0  0  0  0  0  0  0  0  0  0
   -4.8498    2.7645    0.5454 C   0  0  0  0  0  0  0  0  0  0  0  0
   -5.7077    3.4910    1.3588 O   0  0  0  0  0  0  0  0  0  0  0  0
   -5.2327    1.4835    0.1464 C   0  0  0  0  0  0  0  0  0  0  0  0
  1  2  1  0  0  0  0
  2  3  1  0  0  0  0
  4  3  1  0  0  0  0
  4  5  1  6  0  0  0
  4  6  1  0  0  0  0
  6  7  1  0  0  0  0
  8  7  1  0  0  0  0
  8  9  1  6  0  0  0
  8 10  1  0  0  0  0
 10 11  1  0  0  0  0
 12 11  1  0  0  0  0
 12 13  1  1  0  0  0
 12 14  1  0  0  0  0
 14 15  1  0  0  0  0
 15 16  2  0  0  0  0
 16 17  1  0  0  0  0
 17 18  1  0  0  0  0
 17 19  2  0  0  0  0
 19 20  1  0  0  0  0
 20 21  2  0  0  0  0
 21 22  1  0  0  0  0
 21 15  1  0  0  0  0
 22 23  2  0  0  0  0
 23 24  1  0  0  0  0
 24 25  2  0  0  0  0
 25 26  1  0  0  0  0
 26 27  1  0  0  0  0
 26 28  2  0  0  0  0
 28 29  1  0  0  0  0
 29 30  1  0  0  0  0
 29 31  2  0  0  0  0
 31 24  1  0  0  0  0
M  END
>  <zinc_id>
ZINC001229765257

>  <smiles>
COC[C@H](C)OC[C@@H](C)OC[C@@H](C)Oc1cc(O)ccc1/C=C/c1cc(O)cc(O)c1

$$$$
