
 OpenBabel05042123343D

 32 34  0  0  0  0  0  0  0  0999 V2000
    6.9508   -0.7088   -1.1935 C   0  0  0  0  0  0  0  0  0  0  0  0
    6.6860    0.2088   -0.0925 C   0  0  0  0  0  0  0  0  0  0  0  0
    7.2628   -0.3077    1.1957 C   0  0  0  0  0  0  0  0  0  0  0  0
    7.2372    1.5873   -0.3964 C   0  0  0  0  0  0  0  0  0  0  0  0
    5.2826    0.3707    0.0675 O   0  0  0  0  0  0  0  0  0  0  0  0
    4.6661    0.0602    1.2865 C   0  0  0  0  0  0  0  0  0  0  0  0
    5.1906   -0.8874    1.9144 O   0  0  0  0  0  0  0  0  0  0  0  0
    3.2890    0.4173    1.3812 N   0  0  0  0  0  0  0  0  0  0  0  0
    2.5621    1.0195    0.2650 C   0  0  0  0  0  0  0  0  0  0  0  0
    1.2148    0.3745    0.1759 C   0  0  0  0  0  0  0  0  0  0  0  0
    1.4167   -1.1454    0.8378 C   0  0  2  0  0  0  0  0  0  0  0  0
   -0.0961   -1.4849    0.6665 O   0  0  0  0  0  0  0  0  0  0  0  0
   -0.5566   -1.2600   -0.6415 C   0  0  0  0  0  0  0  0  0  0  0  0
    0.2540   -1.5917   -1.7257 C   0  0  0  0  0  0  0  0  0  0  0  0
   -0.0119   -1.1200   -2.9943 C   0  0  0  0  0  0  0  0  0  0  0  0
    0.8837   -1.2398   -4.0630 O   0  0  0  0  0  0  0  0  0  0  0  0
   -1.0710   -0.2241   -3.0835 C   0  0  0  0  0  0  0  0  0  0  0  0
   -1.3527    0.5452   -1.9591 C   0  0  0  0  0  0  0  0  0  0  0  0
   -1.3082   -0.0857   -0.7205 C   0  0  0  0  0  0  0  0  0  0  0  0
   -2.3682    0.0059    0.2734 C   0  0  0  0  0  0  0  0  0  0  0  0
   -3.1671    1.0167    0.4783 C   0  0  0  0  0  0  0  0  0  0  0  0
   -4.6332    0.9392    0.3444 C   0  0  0  0  0  0  0  0  0  0  0  0
   -5.4418    0.4178    1.3301 C   0  0  0  0  0  0  0  0  0  0  0  0
   -6.7703    0.1228    1.0514 C   0  0  0  0  0  0  0  0  0  0  0  0
   -7.6916   -0.0575    2.0642 O   0  0  0  0  0  0  0  0  0  0  0  0
   -7.2094    0.1103   -0.2662 C   0  0  0  0  0  0  0  0  0  0  0  0
   -6.2706    0.3087   -1.2661 C   0  0  0  0  0  0  0  0  0  0  0  0
   -6.4671   -0.1490   -2.5680 O   0  0  0  0  0  0  0  0  0  0  0  0
   -5.2143    1.1363   -0.9057 C   0  0  0  0  0  0  0  0  0  0  0  0
    1.1522   -0.5480    2.3758 C   0  0  0  0  0  0  0  0  0  0  0  0
    2.4926    0.1078    2.5317 C   0  0  0  0  0  0  0  0  0  0  0  0
    3.0887    0.1095    3.6363 O   0  0  0  0  0  0  0  0  0  0  0  0
  1  2  1  0  0  0  0
  2  3  1  0  0  0  0
  2  4  1  0  0  0  0
  2  5  1  0  0  0  0
  5  6  1  0  0  0  0
  6  7  2  0  0  0  0
  6  8  1  0  0  0  0
  8  9  1  0  0  0  0
  9 10  1  0  0  0  0
 10 11  1  0  0  0  0
 11 12  1  6  0  0  0
 11 30  1  0  0  0  0
 12 13  1  0  0  0  0
 13 14  2  0  0  0  0
 14 15  1  0  0  0  0
 15 16  1  0  0  0  0
 15 17  2  0  0  0  0
 17 18  1  0  0  0  0
 18 19  2  0  0  0  0
 19 20  1  0  0  0  0
 19 13  1  0  0  0  0
 20 21  2  0  0  0  0
 21 22  1  0  0  0  0
 22 23  2  0  0  0  0
 23 24  1  0  0  0  0
 24 25  1  0  0  0  0
 24 26  2  0  0  0  0
 26 27  1  0  0  0  0
 27 28  1  0  0  0  0
 27 29  2  0  0  0  0
 29 22  1  0  0  0  0
 30 31  1  0  0  0  0
 31 32  2  0  0  0  0
 31  8  1  0  0  0  0
M  END
>  <zinc_id>
ZINC001229765417

>  <smiles>
CC(C)(C)OC(=O)N1CC[C@H](Oc2cc(O)ccc2/C=C/c2cc(O)cc(O)c2)CC1=O

$$$$
