
 OpenBabel05042123343D

 32 35  0  0  0  0  0  0  0  0999 V2000
   -1.7664   -5.2700   -0.4232 O   0  0  0  0  0  0  0  0  0  0  0  0
   -1.5954   -4.0751    0.0687 C   0  0  0  0  0  0  0  0  0  0  0  0
   -2.4608   -3.6704    1.0752 C   0  0  0  0  0  0  0  0  0  0  0  0
   -2.4244   -2.3470    1.4977 C   0  0  0  0  0  0  0  0  0  0  0  0
   -1.6450   -1.3950    0.8522 C   0  0  0  0  0  0  0  0  0  0  0  0
   -2.2159   -0.0424    0.8003 C   0  0  0  0  0  0  0  0  0  0  0  0
   -2.4398    0.4558   -0.3951 C   0  0  0  0  0  0  0  0  0  0  0  0
   -3.5582    1.3480   -0.7063 C   0  0  0  0  0  0  0  0  0  0  0  0
   -3.3432    2.6954   -0.4447 C   0  0  0  0  0  0  0  0  0  0  0  0
   -4.4060    3.5541   -0.3586 C   0  0  0  0  0  0  0  0  0  0  0  0
   -4.1938    4.8551    0.1075 O   0  0  0  0  0  0  0  0  0  0  0  0
   -5.6828    3.0606   -0.2300 C   0  0  0  0  0  0  0  0  0  0  0  0
   -5.9115    1.7137   -0.3212 C   0  0  0  0  0  0  0  0  0  0  0  0
   -7.1931    1.2288   -0.1521 O   0  0  0  0  0  0  0  0  0  0  0  0
   -4.8501    0.8918   -0.6063 C   0  0  0  0  0  0  0  0  0  0  0  0
   -0.7552   -1.8398   -0.1196 C   0  0  0  0  0  0  0  0  0  0  0  0
   -0.2804   -0.8822   -0.9838 O   0  0  0  0  0  0  0  0  0  0  0  0
    0.8266   -0.9671   -1.8106 C   0  0  0  0  0  0  0  0  0  0  0  0
    2.0727   -0.1896   -1.0694 C   0  0  2  0  0  0  0  0  0  0  0  0
    1.8081   -0.9812    0.3518 C   0  0  0  0  0  0  0  0  0  0  0  0
    2.8605   -0.3634    1.1271 N   0  0  0  0  0  0  0  0  0  0  0  0
    4.1326   -0.9419    0.9548 C   0  0  0  0  0  0  0  0  0  0  0  0
    5.1311   -0.2081    0.1952 C   0  0  0  0  0  0  0  0  0  0  0  0
    6.2806   -0.9056   -0.1645 C   0  0  0  0  0  0  0  0  0  0  0  0
    7.4992   -0.2634   -0.3462 C   0  0  0  0  0  0  0  0  0  0  0  0
    7.4671    1.1202   -0.4385 C   0  0  0  0  0  0  0  0  0  0  0  0
    6.2490    1.7639   -0.6149 C   0  0  0  0  0  0  0  0  0  0  0  0
    5.1074    1.1041   -0.1769 C   0  0  0  0  0  0  0  0  0  0  0  0
    2.7720    1.0452    1.2153 C   0  0  0  0  0  0  0  0  0  0  0  0
    1.9213    1.7384    0.2225 C   0  0  0  0  0  0  0  0  0  0  0  0
    1.1997    0.9719   -0.6405 O   0  0  0  0  0  0  0  0  0  0  0  0
   -0.6058   -3.2050   -0.3321 C   0  0  0  0  0  0  0  0  0  0  0  0
  1  2  1  0  0  0  0
  2  3  2  0  0  0  0
  3  4  1  0  0  0  0
  4  5  2  0  0  0  0
  5  6  1  0  0  0  0
  5 16  1  0  0  0  0
  6  7  2  0  0  0  0
  7  8  1  0  0  0  0
  8  9  2  0  0  0  0
  9 10  1  0  0  0  0
 10 11  1  0  0  0  0
 10 12  2  0  0  0  0
 12 13  1  0  0  0  0
 13 14  1  0  0  0  0
 13 15  2  0  0  0  0
 15  8  1  0  0  0  0
 16 17  1  0  0  0  0
 16 32  2  0  0  0  0
 17 18  1  0  0  0  0
 19 18  1  6  0  0  0
 19 20  1  0  0  0  0
 20 21  1  0  0  0  0
 21 22  1  0  0  0  0
 21 29  1  0  0  0  0
 22 23  1  0  0  0  0
 23 24  2  0  0  0  0
 24 25  1  0  0  0  0
 25 26  2  0  0  0  0
 26 27  1  0  0  0  0
 27 28  2  0  0  0  0
 28 23  1  0  0  0  0
 29 30  1  0  0  0  0
 30 31  1  0  0  0  0
 31 19  1  0  0  0  0
 32  2  1  0  0  0  0
M  END
>  <zinc_id>
ZINC001229765542

>  <smiles>
Oc1cc(O)cc(/C=C/c2ccc(O)cc2OC[C@@H]2CN(Cc3ccccc3)CCO2)c1

$$$$
