
 OpenBabel05042123343D

 22 23  0  0  0  0  0  0  0  0999 V2000
    5.4003    2.7578   -0.1299 C   0  0  0  0  0  0  0  0  0  0  0  0
    5.2681    1.4337   -0.5818 O   0  0  0  0  0  0  0  0  0  0  0  0
    4.1636    0.6944   -0.1683 C   0  0  0  0  0  0  0  0  0  0  0  0
    3.2078    1.2189    0.6926 C   0  0  0  0  0  0  0  0  0  0  0  0
    1.9529    0.6281    0.6219 C   0  0  0  0  0  0  0  0  0  0  0  0
    1.7987   -0.7354    0.3966 C   0  0  0  0  0  0  0  0  0  0  0  0
    0.4830   -1.1503   -0.0931 C   0  0  0  0  0  0  0  0  0  0  0  0
   -0.5005   -1.5532    0.6702 C   0  0  0  0  0  0  0  0  0  0  0  0
   -1.8690   -1.0228    0.5888 C   0  0  0  0  0  0  0  0  0  0  0  0
   -2.1694    0.0028    1.4776 C   0  0  0  0  0  0  0  0  0  0  0  0
   -2.9718    1.0754    1.1339 C   0  0  0  0  0  0  0  0  0  0  0  0
   -3.3020    1.9819    2.1464 O   0  0  0  0  0  0  0  0  0  0  0  0
   -3.9940    3.1394    1.7596 C   0  0  0  0  0  0  0  0  0  0  0  0
   -3.8909    0.8441    0.1196 C   0  0  0  0  0  0  0  0  0  0  0  0
   -3.6099   -0.1330   -0.8238 C   0  0  0  0  0  0  0  0  0  0  0  0
   -4.2089    0.0423   -2.0752 O   0  0  0  0  0  0  0  0  0  0  0  0
   -5.6180    0.0679   -2.2328 C   0  0  0  0  0  0  0  0  0  0  0  0
   -2.4774   -0.9199   -0.6566 C   0  0  0  0  0  0  0  0  0  0  0  0
    2.9319   -1.3840   -0.0822 C   0  0  0  0  0  0  0  0  0  0  0  0
    2.8383   -2.7498   -0.2592 O   0  0  0  0  0  0  0  0  0  0  0  0
    2.4697   -3.5578    0.8367 C   0  0  0  0  0  0  0  0  0  0  0  0
    4.0975   -0.6805   -0.3608 C   0  0  0  0  0  0  0  0  0  0  0  0
  1  2  1  0  0  0  0
  2  3  1  0  0  0  0
  3  4  2  0  0  0  0
  4  5  1  0  0  0  0
  5  6  2  0  0  0  0
  6  7  1  0  0  0  0
  6 19  1  0  0  0  0
  7  8  2  0  0  0  0
  8  9  1  0  0  0  0
  9 10  2  0  0  0  0
 10 11  1  0  0  0  0
 11 12  1  0  0  0  0
 11 14  2  0  0  0  0
 12 13  1  0  0  0  0
 14 15  1  0  0  0  0
 15 16  1  0  0  0  0
 15 18  2  0  0  0  0
 16 17  1  0  0  0  0
 18  9  1  0  0  0  0
 19 20  1  0  0  0  0
 19 22  2  0  0  0  0
 20 21  1  0  0  0  0
 22  3  1  0  0  0  0
M  END
>  <zinc_id>
ZINC000003875137

>  <smiles>
COc1cc(/C=C/c2ccc(OC)cc2OC)cc(OC)c1

$$$$
