
 OpenBabel05042123343D

 32 33  0  0  0  0  0  0  0  0999 V2000
   -3.7332   -2.8967    1.2476 C   0  0  0  0  0  0  0  0  0  0  0  0
   -4.4639   -2.3827    1.0840 C   0  0  0  0  0  0  0  0  0  0  0  0
   -5.9324   -2.6746    1.2195 C   0  0  0  0  0  0  0  0  0  0  0  0
   -4.2800   -1.1285    0.4303 O   0  0  0  0  0  0  0  0  0  0  0  0
   -3.8637   -1.0501   -0.9000 C   0  0  0  0  0  0  0  0  0  0  0  0
   -4.0245   -2.0811   -1.6176 O   0  0  0  0  0  0  0  0  0  0  0  0
   -3.1935    0.1659   -1.4581 C   0  0  0  0  0  0  0  0  0  0  0  0
   -2.3553    0.7366   -0.1565 C   0  0  1  0  0  0  0  0  0  0  0  0
   -0.9987    0.5643   -0.8806 O   0  0  0  0  0  0  0  0  0  0  0  0
   -0.2804   -0.4041   -0.1704 C   0  0  0  0  0  0  0  0  0  0  0  0
   -0.7351   -1.7087   -0.0195 C   0  0  0  0  0  0  0  0  0  0  0  0
   -0.2404   -2.5399    0.9804 C   0  0  0  0  0  0  0  0  0  0  0  0
   -0.0067   -3.8932    0.7529 O   0  0  0  0  0  0  0  0  0  0  0  0
    0.3767   -1.8825    2.0388 C   0  0  0  0  0  0  0  0  0  0  0  0
    0.8741   -0.5956    1.8757 C   0  0  0  0  0  0  0  0  0  0  0  0
    0.6867    0.1058    0.6885 C   0  0  0  0  0  0  0  0  0  0  0  0
    1.7159    0.9265    0.0759 C   0  0  0  0  0  0  0  0  0  0  0  0
    2.7153    0.6280   -0.6237 C   0  0  0  0  0  0  0  0  0  0  0  0
    4.0971    0.3772   -0.4612 C   0  0  0  0  0  0  0  0  0  0  0  0
    5.1310    1.3022   -0.5139 C   0  0  0  0  0  0  0  0  0  0  0  0
    6.4434    0.9080   -0.2760 C   0  0  0  0  0  0  0  0  0  0  0  0
    7.4567    1.8417   -0.2409 O   0  0  0  0  0  0  0  0  0  0  0  0
    6.7913   -0.4293   -0.3130 C   0  0  0  0  0  0  0  0  0  0  0  0
    5.7898   -1.3783   -0.4064 C   0  0  0  0  0  0  0  0  0  0  0  0
    6.0944   -2.7361   -0.5198 O   0  0  0  0  0  0  0  0  0  0  0  0
    4.4990   -0.9481   -0.3415 C   0  0  0  0  0  0  0  0  0  0  0  0
   -2.5194    2.2708   -0.6575 C   0  0  0  0  0  0  0  0  0  0  0  0
   -1.5437    3.0112   -0.3000 O   0  0  0  0  0  0  0  0  0  0  0  0
   -3.7580    2.7323   -0.1820 O   0  0  0  0  0  0  0  0  0  0  0  0
   -3.9366    4.0281    0.3488 C   0  0  0  0  0  0  0  0  0  0  0  0
   -3.5968    4.0513    1.8176 C   0  0  0  0  0  0  0  0  0  0  0  0
   -3.2093    5.0795   -0.4413 C   0  0  0  0  0  0  0  0  0  0  0  0
  1  2  1  0  0  0  0
  2  3  1  0  0  0  0
  2  4  1  0  0  0  0
  4  5  1  0  0  0  0
  5  6  2  0  0  0  0
  5  7  1  0  0  0  0
  8  7  1  6  0  0  0
  8  9  1  0  0  0  0
  8 27  1  0  0  0  0
  9 10  1  0  0  0  0
 10 11  2  0  0  0  0
 11 12  1  0  0  0  0
 12 13  1  0  0  0  0
 12 14  2  0  0  0  0
 14 15  1  0  0  0  0
 15 16  2  0  0  0  0
 16 17  1  0  0  0  0
 16 10  1  0  0  0  0
 17 18  2  0  0  0  0
 18 19  1  0  0  0  0
 19 20  2  0  0  0  0
 20 21  1  0  0  0  0
 21 22  1  0  0  0  0
 21 23  2  0  0  0  0
 23 24  1  0  0  0  0
 24 25  1  0  0  0  0
 24 26  2  0  0  0  0
 26 19  1  0  0  0  0
 27 28  2  0  0  0  0
 27 29  1  0  0  0  0
 29 30  1  0  0  0  0
 30 31  1  0  0  0  0
 30 32  1  0  0  0  0
M  END
>  <zinc_id>
ZINC001229765618

>  <smiles>
CC(C)OC(=O)C[C@@H](Oc1cc(O)ccc1/C=C/c1cc(O)cc(O)c1)C(=O)OC(C)C

$$$$
