
 OpenBabel05042123343D

 32 34  0  0  0  0  0  0  0  0999 V2000
   -6.5887    3.8098    1.1910 C   0  0  0  0  0  0  0  0  0  0  0  0
   -5.6494    3.7902    0.0054 C   0  0  0  0  0  0  0  0  0  0  0  0
   -5.1320    2.4930   -0.1399 O   0  0  0  0  0  0  0  0  0  0  0  0
   -3.8843    2.1605    0.3751 C   0  0  0  0  0  0  0  0  0  0  0  0
   -3.0555    3.1015    0.5398 O   0  0  0  0  0  0  0  0  0  0  0  0
   -3.3757    0.8083    0.0875 C   0  0  0  0  0  0  0  0  0  0  0  0
   -4.2772   -0.2984    0.4502 C   0  0  0  0  0  0  0  0  0  0  0  0
   -5.5139   -0.0640    0.5394 O   0  0  0  0  0  0  0  0  0  0  0  0
   -3.9270   -1.5888    0.0605 O   0  0  0  0  0  0  0  0  0  0  0  0
   -4.8660   -2.6335    0.0125 C   0  0  0  0  0  0  0  0  0  0  0  0
   -6.0895   -2.1580   -0.7534 C   0  0  0  0  0  0  0  0  0  0  0  0
   -2.7518    0.6358   -1.2936 C   0  0  0  0  0  0  0  0  0  0  0  0
   -1.7498   -0.2880   -0.6170 C   0  0  0  0  0  0  0  0  0  0  0  0
   -0.4431   -0.2352   -1.1258 O   0  0  0  0  0  0  0  0  0  0  0  0
    0.4307   -1.2333   -0.6807 C   0  0  0  0  0  0  0  0  0  0  0  0
    0.2173   -2.5761   -0.9676 C   0  0  0  0  0  0  0  0  0  0  0  0
    1.0046   -3.5513   -0.3668 C   0  0  0  0  0  0  0  0  0  0  0  0
    1.4659   -4.6640   -1.0768 O   0  0  0  0  0  0  0  0  0  0  0  0
    1.6584   -3.1759    0.8003 C   0  0  0  0  0  0  0  0  0  0  0  0
    1.8077   -1.8379    1.1402 C   0  0  0  0  0  0  0  0  0  0  0  0
    1.3320   -0.8398    0.2980 C   0  0  0  0  0  0  0  0  0  0  0  0
    2.1008    0.3868    0.0438 C   0  0  0  0  0  0  0  0  0  0  0  0
    2.9948    0.5010   -0.9104 C   0  0  0  0  0  0  0  0  0  0  0  0
    4.4032    0.8533   -0.6728 C   0  0  0  0  0  0  0  0  0  0  0  0
    4.7218    1.9961    0.0502 C   0  0  0  0  0  0  0  0  0  0  0  0
    5.7863    1.9787    0.9418 C   0  0  0  0  0  0  0  0  0  0  0  0
    5.9807    3.0176    1.8566 O   0  0  0  0  0  0  0  0  0  0  0  0
    6.5294    0.8308    1.1802 C   0  0  0  0  0  0  0  0  0  0  0  0
    6.3384   -0.2317    0.3292 C   0  0  0  0  0  0  0  0  0  0  0  0
    7.1724   -1.3522    0.4067 O   0  0  0  0  0  0  0  0  0  0  0  0
    5.3442   -0.1677   -0.6346 C   0  0  0  0  0  0  0  0  0  0  0  0
   -1.9847    0.5325    0.6469 C   0  0  0  0  0  0  0  0  0  0  0  0
  1  2  1  0  0  0  0
  2  3  1  0  0  0  0
  3  4  1  0  0  0  0
  4  5  2  0  0  0  0
  4  6  1  0  0  0  0
  6  7  1  0  0  0  0
  6 12  1  0  0  0  0
  7  8  2  0  0  0  0
  7  9  1  0  0  0  0
  9 10  1  0  0  0  0
 10 11  1  0  0  0  0
 12 13  1  0  0  0  0
 13 14  1  0  0  0  0
 13 32  1  0  0  0  0
 14 15  1  0  0  0  0
 15 16  2  0  0  0  0
 16 17  1  0  0  0  0
 17 18  1  0  0  0  0
 17 19  2  0  0  0  0
 19 20  1  0  0  0  0
 20 21  2  0  0  0  0
 21 22  1  0  0  0  0
 21 15  1  0  0  0  0
 22 23  2  0  0  0  0
 23 24  1  0  0  0  0
 24 25  2  0  0  0  0
 25 26  1  0  0  0  0
 26 27  1  0  0  0  0
 26 28  2  0  0  0  0
 28 29  1  0  0  0  0
 29 30  1  0  0  0  0
 29 31  2  0  0  0  0
 31 24  1  0  0  0  0
 32  6  1  0  0  0  0
M  END
>  <zinc_id>
ZINC001229765641

>  <smiles>
CCOC(=O)C1(C(=O)OCC)CC(Oc2cc(O)ccc2/C=C/c2cc(O)cc(O)c2)C1

$$$$
