
 OpenBabel05042123343D

 30 31  0  0  0  0  0  0  0  0999 V2000
   -6.5868    1.7292    0.2482 C   0  0  0  0  0  0  0  0  0  0  0  0
   -6.3099    1.1401    0.1734 C   0  0  0  0  0  0  0  0  0  0  0  0
   -5.0674    0.4415    0.2262 O   0  0  0  0  0  0  0  0  0  0  0  0
   -4.1531    0.5965   -0.8231 C   0  0  0  0  0  0  0  0  0  0  0  0
   -4.6964    0.9171   -1.9250 O   0  0  0  0  0  0  0  0  0  0  0  0
   -3.0935   -0.5913   -0.9380 C   0  0  1  0  0  0  0  0  0  0  0  0
   -2.2192    0.1343   -2.0933 C   0  0  0  0  0  0  0  0  0  0  0  0
   -2.1511   -0.1418    0.4255 C   0  0  1  0  0  0  0  0  0  0  0  0
   -0.8826   -0.7173   -0.2170 O   0  0  0  0  0  0  0  0  0  0  0  0
   -0.3558   -1.8388    0.4018 C   0  0  0  0  0  0  0  0  0  0  0  0
   -1.1255   -2.9940    0.3801 C   0  0  0  0  0  0  0  0  0  0  0  0
   -0.5571   -4.2594    0.4254 C   0  0  0  0  0  0  0  0  0  0  0  0
   -1.3281   -5.4174    0.5010 O   0  0  0  0  0  0  0  0  0  0  0  0
    0.7727   -4.4094    0.1207 C   0  0  0  0  0  0  0  0  0  0  0  0
    1.5631   -3.2947    0.0626 C   0  0  0  0  0  0  0  0  0  0  0  0
    1.0140   -2.0391    0.2931 C   0  0  0  0  0  0  0  0  0  0  0  0
    1.8896   -0.9076   -0.0359 C   0  0  0  0  0  0  0  0  0  0  0  0
    2.2697   -0.0442    0.9023 C   0  0  0  0  0  0  0  0  0  0  0  0
    3.3381    0.9246    0.6311 C   0  0  0  0  0  0  0  0  0  0  0  0
    4.5850    0.7660    1.1974 C   0  0  0  0  0  0  0  0  0  0  0  0
    5.6455    1.5799    0.8241 C   0  0  0  0  0  0  0  0  0  0  0  0
    6.7499    1.6597    1.6766 O   0  0  0  0  0  0  0  0  0  0  0  0
    5.5042    2.4811   -0.2189 C   0  0  0  0  0  0  0  0  0  0  0  0
    4.3058    2.4770   -0.9008 C   0  0  0  0  0  0  0  0  0  0  0  0
    4.0572    3.3963   -1.9220 O   0  0  0  0  0  0  0  0  0  0  0  0
    3.2946    1.5973   -0.5810 C   0  0  0  0  0  0  0  0  0  0  0  0
   -1.7975    1.3880    0.0538 C   0  0  0  0  0  0  0  0  0  0  0  0
   -0.8582    1.5911   -0.8104 F   0  0  0  0  0  0  0  0  0  0  0  0
   -1.0253    1.6014    1.2284 F   0  0  0  0  0  0  0  0  0  0  0  0
   -2.7821    2.2336    0.3299 F   0  0  0  0  0  0  0  0  0  0  0  0
  1  2  1  0  0  0  0
  2  3  1  0  0  0  0
  3  4  1  0  0  0  0
  4  5  2  0  0  0  0
  6  4  1  0  0  0  0
  6  7  1  6  0  0  0
  6  8  1  0  0  0  0
  8  9  1  6  0  0  0
  8 27  1  0  0  0  0
  9 10  1  0  0  0  0
 10 11  2  0  0  0  0
 11 12  1  0  0  0  0
 12 13  1  0  0  0  0
 12 14  2  0  0  0  0
 14 15  1  0  0  0  0
 15 16  2  0  0  0  0
 16 17  1  0  0  0  0
 16 10  1  0  0  0  0
 17 18  2  0  0  0  0
 18 19  1  0  0  0  0
 19 20  2  0  0  0  0
 20 21  1  0  0  0  0
 21 22  1  0  0  0  0
 21 23  2  0  0  0  0
 23 24  1  0  0  0  0
 24 25  1  0  0  0  0
 24 26  2  0  0  0  0
 26 19  1  0  0  0  0
 27 28  1  0  0  0  0
 27 29  1  0  0  0  0
 27 30  1  0  0  0  0
M  END
>  <zinc_id>
ZINC001229766126

>  <smiles>
CCOC(=O)[C@@H](C)[C@@H](Oc1cc(O)ccc1/C=C/c1cc(O)cc(O)c1)C(F)(F)F

$$$$
