
 OpenBabel05042123343D

 30 31  0  0  0  0  0  0  0  0999 V2000
   -5.8515    2.9017    0.4858 C   0  0  0  0  0  0  0  0  0  0  0  0
   -6.2436    1.6578   -0.2924 C   0  0  0  0  0  0  0  0  0  0  0  0
   -5.0897    1.1313   -0.8935 O   0  0  0  0  0  0  0  0  0  0  0  0
   -4.4681   -0.0632   -0.5078 C   0  0  0  0  0  0  0  0  0  0  0  0
   -5.1161   -0.7743    0.2787 O   0  0  0  0  0  0  0  0  0  0  0  0
   -2.9187    0.1681   -0.1538 C   0  0  2  0  0  0  0  0  0  0  0  0
   -2.5949    0.6353   -1.6881 C   0  0  0  0  0  0  0  0  0  0  0  0
   -2.4650   -1.4759   -0.4984 C   0  0  1  0  0  0  0  0  0  0  0  0
   -0.9685   -1.1445   -0.6891 O   0  0  0  0  0  0  0  0  0  0  0  0
   -0.3984   -0.0094   -0.3325 C   0  0  0  0  0  0  0  0  0  0  0  0
   -0.4895    0.7160    0.8494 C   0  0  0  0  0  0  0  0  0  0  0  0
   -0.0168    2.0201    0.9285 C   0  0  0  0  0  0  0  0  0  0  0  0
   -0.4230    2.9258    1.8802 O   0  0  0  0  0  0  0  0  0  0  0  0
    0.7231    2.5255   -0.1329 C   0  0  0  0  0  0  0  0  0  0  0  0
    1.0846    1.6991   -1.1896 C   0  0  0  0  0  0  0  0  0  0  0  0
    0.6778    0.3680   -1.1372 C   0  0  0  0  0  0  0  0  0  0  0  0
    1.5748   -0.6419   -1.7242 C   0  0  0  0  0  0  0  0  0  0  0  0
    2.2528   -1.5336   -1.0559 C   0  0  0  0  0  0  0  0  0  0  0  0
    3.6886   -1.4434   -0.7345 C   0  0  0  0  0  0  0  0  0  0  0  0
    4.6055   -0.9248   -1.6426 C   0  0  0  0  0  0  0  0  0  0  0  0
    5.5450    0.0341   -1.2764 C   0  0  0  0  0  0  0  0  0  0  0  0
    6.0819    0.9326   -2.1983 O   0  0  0  0  0  0  0  0  0  0  0  0
    5.6621    0.4070    0.0571 C   0  0  0  0  0  0  0  0  0  0  0  0
    5.0564   -0.4153    0.9994 C   0  0  0  0  0  0  0  0  0  0  0  0
    5.1792   -0.0091    2.3246 O   0  0  0  0  0  0  0  0  0  0  0  0
    4.0764   -1.3105    0.5952 C   0  0  0  0  0  0  0  0  0  0  0  0
   -2.2635   -1.9208    1.0820 C   0  0  0  0  0  0  0  0  0  0  0  0
   -1.0248   -2.3976    1.2552 F   0  0  0  0  0  0  0  0  0  0  0  0
   -2.7683   -1.0251    1.8980 F   0  0  0  0  0  0  0  0  0  0  0  0
   -3.1077   -3.0330    1.0892 F   0  0  0  0  0  0  0  0  0  0  0  0
  1  2  1  0  0  0  0
  2  3  1  0  0  0  0
  3  4  1  0  0  0  0
  4  5  2  0  0  0  0
  6  4  1  0  0  0  0
  6  7  1  6  0  0  0
  6  8  1  0  0  0  0
  8  9  1  6  0  0  0
  8 27  1  0  0  0  0
  9 10  1  0  0  0  0
 10 11  2  0  0  0  0
 11 12  1  0  0  0  0
 12 13  1  0  0  0  0
 12 14  2  0  0  0  0
 14 15  1  0  0  0  0
 15 16  2  0  0  0  0
 16 17  1  0  0  0  0
 16 10  1  0  0  0  0
 17 18  2  0  0  0  0
 18 19  1  0  0  0  0
 19 20  2  0  0  0  0
 20 21  1  0  0  0  0
 21 22  1  0  0  0  0
 21 23  2  0  0  0  0
 23 24  1  0  0  0  0
 24 25  1  0  0  0  0
 24 26  2  0  0  0  0
 26 19  1  0  0  0  0
 27 28  1  0  0  0  0
 27 29  1  0  0  0  0
 27 30  1  0  0  0  0
M  END
>  <zinc_id>
ZINC001229766128

>  <smiles>
CCOC(=O)[C@H](C)[C@@H](Oc1cc(O)ccc1/C=C/c1cc(O)cc(O)c1)C(F)(F)F

$$$$
