
 OpenBabel05042123343D

 32 33  0  0  0  0  0  0  0  0999 V2000
   -2.9620   -2.1987    3.3538 C   0  0  0  0  0  0  0  0  0  0  0  0
   -2.3396   -0.9364    3.1581 O   0  0  0  0  0  0  0  0  0  0  0  0
   -1.7196   -0.7329    1.9273 C   0  0  0  0  0  0  0  0  0  0  0  0
   -0.5798   -1.4900    1.6854 C   0  0  0  0  0  0  0  0  0  0  0  0
   -0.0219   -1.4780    0.4126 C   0  0  0  0  0  0  0  0  0  0  0  0
   -0.5908   -0.6175   -0.5201 C   0  0  0  0  0  0  0  0  0  0  0  0
    0.0089   -0.4188   -1.8356 C   0  0  0  0  0  0  0  0  0  0  0  0
    1.2040    0.1237   -1.9294 C   0  0  0  0  0  0  0  0  0  0  0  0
    2.0796    0.3329   -0.7691 C   0  0  0  0  0  0  0  0  0  0  0  0
    3.0276   -0.6614   -0.5588 C   0  0  0  0  0  0  0  0  0  0  0  0
    4.1947   -0.3679    0.1353 C   0  0  0  0  0  0  0  0  0  0  0  0
    5.0914   -1.3680    0.4744 O   0  0  0  0  0  0  0  0  0  0  0  0
    5.1256   -2.5623   -0.2910 C   0  0  0  0  0  0  0  0  0  0  0  0
    4.6671    0.9333    0.1820 C   0  0  0  0  0  0  0  0  0  0  0  0
    6.0175    1.2399   -0.0134 O   0  0  0  0  0  0  0  0  0  0  0  0
    6.9959    0.2391   -0.2227 C   0  0  0  0  0  0  0  0  0  0  0  0
    3.7263    1.9322    0.0272 C   0  0  0  0  0  0  0  0  0  0  0  0
    4.1989    3.2459    0.0756 O   0  0  0  0  0  0  0  0  0  0  0  0
    4.7589    3.8249    1.2327 C   0  0  0  0  0  0  0  0  0  0  0  0
    2.4665    1.6205   -0.4426 C   0  0  0  0  0  0  0  0  0  0  0  0
   -1.9397   -0.3028   -0.4033 C   0  0  0  0  0  0  0  0  0  0  0  0
   -2.8047   -0.3258   -1.5027 O   0  0  0  0  0  0  0  0  0  0  0  0
   -3.7673   -1.7456   -1.6680 P   0  0  0  0  0  0  0  0  0  0  0  0
   -2.8828   -2.7956   -2.2830 O   0  0  0  0  0  0  0  0  0  0  0  0
   -4.2686   -2.3286   -0.1614 O   0  0  0  0  0  0  0  0  0  0  0  0
   -5.0876   -1.4714   -2.6972 O   0  0  0  0  0  0  0  0  0  0  0  0
   -2.4115   -0.1176    0.8912 C   0  0  0  0  0  0  0  0  0  0  0  0
   -3.7432    0.2555    1.0956 O   0  0  0  0  0  0  0  0  0  0  0  0
   -4.4109    1.6832    0.4554 P   0  0  0  0  0  0  0  0  0  0  0  0
   -3.4217    2.3646   -0.4784 O   0  0  0  0  0  0  0  0  0  0  0  0
   -5.8021    1.3702   -0.4713 O   0  0  0  0  0  0  0  0  0  0  0  0
   -4.8090    2.7532    1.7130 O   0  0  0  0  0  0  0  0  0  0  0  0
  1  2  1  0  0  0  0
  2  3  1  0  0  0  0
  3  4  2  0  0  0  0
  4  5  1  0  0  0  0
  5  6  2  0  0  0  0
  6  7  1  0  0  0  0
  6 21  1  0  0  0  0
  7  8  2  0  0  0  0
  8  9  1  0  0  0  0
  9 10  2  0  0  0  0
 10 11  1  0  0  0  0
 11 12  1  0  0  0  0
 11 14  2  0  0  0  0
 12 13  1  0  0  0  0
 14 15  1  0  0  0  0
 14 17  1  0  0  0  0
 15 16  1  0  0  0  0
 17 18  1  0  0  0  0
 17 20  2  0  0  0  0
 18 19  1  0  0  0  0
 20  9  1  0  0  0  0
 21 22  1  0  0  0  0
 21 27  2  0  0  0  0
 22 23  1  0  0  0  0
 23 24  2  0  0  0  0
 23 25  1  0  0  0  0
 23 26  1  0  0  0  0
 27 28  1  0  0  0  0
 27  3  1  0  0  0  0
 28 29  1  0  0  0  0
 29 30  2  0  0  0  0
 29 31  1  0  0  0  0
 29 32  1  0  0  0  0
M  END
>  <zinc_id>
ZINC000003994214

>  <smiles>
COc1cc(/C=C\c2ccc(OC)c(OP(=O)(O)O)c2OP(=O)(O)O)cc(OC)c1OC

$$$$
