
 OpenBabel05042123343D

 31 34  0  0  0  0  0  0  0  0999 V2000
   -0.4708   -2.3703    2.2025 O   0  0  0  0  0  0  0  0  0  0  0  0
   -0.4109   -2.2022    0.8151 C   0  0  0  0  0  0  0  0  0  0  0  0
   -1.2195   -2.9566   -0.0261 C   0  0  0  0  0  0  0  0  0  0  0  0
   -1.8615   -2.3677   -1.1092 C   0  0  0  0  0  0  0  0  0  0  0  0
   -1.5724   -1.0641   -1.4905 C   0  0  0  0  0  0  0  0  0  0  0  0
   -2.6831   -0.2627   -2.0219 C   0  0  0  0  0  0  0  0  0  0  0  0
   -3.0805    0.8693   -1.4851 C   0  0  0  0  0  0  0  0  0  0  0  0
   -4.4697    1.1354   -1.0894 C   0  0  0  0  0  0  0  0  0  0  0  0
   -5.5131    0.4064   -1.6467 C   0  0  0  0  0  0  0  0  0  0  0  0
   -6.6629    0.0989   -0.9470 C   0  0  0  0  0  0  0  0  0  0  0  0
   -7.4880   -0.9329   -1.4064 O   0  0  0  0  0  0  0  0  0  0  0  0
   -6.7065    0.3233    0.4170 C   0  0  0  0  0  0  0  0  0  0  0  0
   -5.7922    1.1902    0.9481 C   0  0  0  0  0  0  0  0  0  0  0  0
   -5.9843    1.6109    2.2622 O   0  0  0  0  0  0  0  0  0  0  0  0
   -4.6668    1.5536    0.2210 C   0  0  0  0  0  0  0  0  0  0  0  0
   -0.5014   -0.4659   -0.8440 C   0  0  0  0  0  0  0  0  0  0  0  0
   -0.0992    0.7677   -1.3652 O   0  0  0  0  0  0  0  0  0  0  0  0
    1.2939    1.0562   -1.2701 C   0  0  0  0  0  0  0  0  0  0  0  0
    1.5405    1.5244    0.1364 C   0  0  0  0  0  0  0  0  0  0  0  0
    3.0354    1.7107    0.3506 C   0  0  0  0  0  0  0  0  0  0  0  0
    3.6428    0.4126    0.0828 N   0  0  0  0  0  0  0  0  0  0  0  0
    4.7954    0.0822    0.8453 C   0  0  0  0  0  0  0  0  0  0  0  0
    5.9531   -0.3176    0.1899 C   0  0  0  0  0  0  0  0  0  0  0  0
    7.0598   -0.5080    1.0066 C   0  0  0  0  0  0  0  0  0  0  0  0
    8.5380   -1.2347    0.4327 Cl  0  0  0  0  0  0  0  0  0  0  0  0
    7.0307   -0.1294    2.3078 N   0  0  0  0  0  0  0  0  0  0  0  0
    5.8889    0.2322    2.9033 C   0  0  0  0  0  0  0  0  0  0  0  0
    4.8029    0.4354    2.1477 N   0  0  0  0  0  0  0  0  0  0  0  0
    3.4672   -0.2079   -1.2029 C   0  0  0  0  0  0  0  0  0  0  0  0
    2.0237   -0.2103   -1.6163 C   0  0  0  0  0  0  0  0  0  0  0  0
    0.1105   -1.0442    0.2517 C   0  0  0  0  0  0  0  0  0  0  0  0
  1  2  1  0  0  0  0
  2  3  2  0  0  0  0
  3  4  1  0  0  0  0
  4  5  2  0  0  0  0
  5  6  1  0  0  0  0
  5 16  1  0  0  0  0
  6  7  2  0  0  0  0
  7  8  1  0  0  0  0
  8  9  2  0  0  0  0
  9 10  1  0  0  0  0
 10 11  1  0  0  0  0
 10 12  2  0  0  0  0
 12 13  1  0  0  0  0
 13 14  1  0  0  0  0
 13 15  2  0  0  0  0
 15  8  1  0  0  0  0
 16 17  1  0  0  0  0
 16 31  2  0  0  0  0
 17 18  1  0  0  0  0
 18 19  1  0  0  0  0
 19 20  1  0  0  0  0
 20 21  1  0  0  0  0
 21 22  1  0  0  0  0
 21 29  1  0  0  0  0
 22 23  2  0  0  0  0
 23 24  1  0  0  0  0
 24 25  1  0  0  0  0
 24 26  2  0  0  0  0
 26 27  1  0  0  0  0
 27 28  2  0  0  0  0
 28 22  1  0  0  0  0
 29 30  1  0  0  0  0
 30 18  1  0  0  0  0
 31  2  1  0  0  0  0
M  END
>  <zinc_id>
ZINC001229766186

>  <smiles>
Oc1cc(O)cc(/C=C/c2ccc(O)cc2OC2CCN(c3cc(Cl)ncn3)CC2)c1

$$$$
