
 OpenBabel05042123343D

 32 34  0  0  0  0  0  0  0  0999 V2000
   -6.1533   -0.9092    1.0703 C   0  0  0  0  0  0  0  0  0  0  0  0
   -6.5815   -0.5693    0.1449 C   0  0  0  0  0  0  0  0  0  0  0  0
   -7.9698   -0.0148    0.4421 C   0  0  0  0  0  0  0  0  0  0  0  0
   -6.6978   -1.7010   -0.8448 C   0  0  0  0  0  0  0  0  0  0  0  0
   -5.8430    0.5308   -0.3839 O   0  0  0  0  0  0  0  0  0  0  0  0
   -4.4520    0.4836   -0.5249 C   0  0  0  0  0  0  0  0  0  0  0  0
   -3.9997   -0.6828   -0.7326 O   0  0  0  0  0  0  0  0  0  0  0  0
   -3.6150    1.5901   -0.1946 N   0  0  0  0  0  0  0  0  0  0  0  0
   -4.0110    2.5386    0.8592 C   0  0  0  0  0  0  0  0  0  0  0  0
   -2.7280    3.3728    0.9502 C   0  0  0  0  0  0  0  0  0  0  0  0
   -1.7495    2.3934    1.0263 O   0  0  0  0  0  0  0  0  0  0  0  0
   -1.2245    2.2493   -0.4237 C   0  0  1  0  0  0  0  0  0  0  0  0
   -1.2370    0.5718   -0.3070 C   0  0  0  0  0  0  0  0  0  0  0  0
   -0.3917    0.3148    0.7858 O   0  0  0  0  0  0  0  0  0  0  0  0
    0.3819   -0.8475    0.7579 C   0  0  0  0  0  0  0  0  0  0  0  0
   -0.1479   -2.0868    0.4233 C   0  0  0  0  0  0  0  0  0  0  0  0
    0.6526   -3.2219    0.4581 C   0  0  0  0  0  0  0  0  0  0  0  0
    0.6478   -4.1841   -0.5348 O   0  0  0  0  0  0  0  0  0  0  0  0
    1.7916   -3.1312    1.2494 C   0  0  0  0  0  0  0  0  0  0  0  0
    2.2231   -1.9069    1.7487 C   0  0  0  0  0  0  0  0  0  0  0  0
    1.6526   -0.7198    1.3016 C   0  0  0  0  0  0  0  0  0  0  0  0
    2.4699    0.4177    0.8537 C   0  0  0  0  0  0  0  0  0  0  0  0
    2.7860    0.6287   -0.4174 C   0  0  0  0  0  0  0  0  0  0  0  0
    4.1796    0.6423   -0.8935 C   0  0  0  0  0  0  0  0  0  0  0  0
    5.0095    1.6404   -0.3979 C   0  0  0  0  0  0  0  0  0  0  0  0
    6.3484    1.3906   -0.1217 C   0  0  0  0  0  0  0  0  0  0  0  0
    7.1893    2.4763    0.1349 O   0  0  0  0  0  0  0  0  0  0  0  0
    6.8532    0.1028   -0.1558 C   0  0  0  0  0  0  0  0  0  0  0  0
    6.0618   -0.8862   -0.7214 C   0  0  0  0  0  0  0  0  0  0  0  0
    6.4666   -2.2195   -0.6049 O   0  0  0  0  0  0  0  0  0  0  0  0
    4.8407   -0.5219   -1.2712 C   0  0  0  0  0  0  0  0  0  0  0  0
   -2.7529    2.2587   -1.1252 C   0  0  0  0  0  0  0  0  0  0  0  0
  1  2  1  0  0  0  0
  2  3  1  0  0  0  0
  2  4  1  0  0  0  0
  2  5  1  0  0  0  0
  5  6  1  0  0  0  0
  6  7  2  0  0  0  0
  6  8  1  0  0  0  0
  8  9  1  0  0  0  0
  9 10  1  0  0  0  0
 10 11  1  0  0  0  0
 11 12  1  0  0  0  0
 12 13  1  1  0  0  0
 12 32  1  0  0  0  0
 13 14  1  0  0  0  0
 14 15  1  0  0  0  0
 15 16  2  0  0  0  0
 16 17  1  0  0  0  0
 17 18  1  0  0  0  0
 17 19  2  0  0  0  0
 19 20  1  0  0  0  0
 20 21  2  0  0  0  0
 21 22  1  0  0  0  0
 21 15  1  0  0  0  0
 22 23  2  0  0  0  0
 23 24  1  0  0  0  0
 24 25  2  0  0  0  0
 25 26  1  0  0  0  0
 26 27  1  0  0  0  0
 26 28  2  0  0  0  0
 28 29  1  0  0  0  0
 29 30  1  0  0  0  0
 29 31  2  0  0  0  0
 31 24  1  0  0  0  0
 32  8  1  0  0  0  0
M  END
>  <zinc_id>
ZINC001229766612

>  <smiles>
CC(C)(C)OC(=O)N1CCO[C@@H](COc2cc(O)ccc2/C=C/c2cc(O)cc(O)c2)C1

$$$$
