
 OpenBabel05042123343D

 31 32  0  0  0  0  0  0  0  0999 V2000
   -6.5238    2.4269   -0.0157 C   0  0  0  0  0  0  0  0  0  0  0  0
   -5.9174    2.8265   -0.6851 C   0  0  0  0  0  0  0  0  0  0  0  0
   -5.1632    1.8757   -1.4388 O   0  0  0  0  0  0  0  0  0  0  0  0
   -4.2950    0.9689   -0.8141 C   0  0  0  0  0  0  0  0  0  0  0  0
   -4.4500    0.9081    0.4466 O   0  0  0  0  0  0  0  0  0  0  0  0
   -2.9234    0.7414   -1.2893 C   0  0  0  0  0  0  0  0  0  0  0  0
   -2.7513   -0.2348   -2.3815 C   0  0  0  0  0  0  0  0  0  0  0  0
   -1.5998   -1.3291   -1.9422 C   0  0  1  0  0  0  0  0  0  0  0  0
   -0.7319   -0.2571   -1.2603 O   0  0  0  0  0  0  0  0  0  0  0  0
   -0.1937   -0.5177   -0.0424 C   0  0  0  0  0  0  0  0  0  0  0  0
   -0.7210    0.1305    1.0743 C   0  0  0  0  0  0  0  0  0  0  0  0
   -0.0302    0.1454    2.2827 C   0  0  0  0  0  0  0  0  0  0  0  0
    0.0623    1.2980    3.0751 O   0  0  0  0  0  0  0  0  0  0  0  0
    0.8801   -0.8993    2.4066 C   0  0  0  0  0  0  0  0  0  0  0  0
    1.5122   -1.4117    1.2753 C   0  0  0  0  0  0  0  0  0  0  0  0
    1.0762   -1.0841   -0.0056 C   0  0  0  0  0  0  0  0  0  0  0  0
    2.0727   -0.8262   -1.0544 C   0  0  0  0  0  0  0  0  0  0  0  0
    2.4054    0.3641   -1.4891 C   0  0  0  0  0  0  0  0  0  0  0  0
    3.7491    0.9462   -1.3505 C   0  0  0  0  0  0  0  0  0  0  0  0
    4.0802    1.7753   -0.2820 C   0  0  0  0  0  0  0  0  0  0  0  0
    5.2178    1.5435    0.4850 C   0  0  0  0  0  0  0  0  0  0  0  0
    5.3640    2.0891    1.7558 O   0  0  0  0  0  0  0  0  0  0  0  0
    6.2933    1.0167   -0.2106 C   0  0  0  0  0  0  0  0  0  0  0  0
    6.1319    0.4772   -1.4779 C   0  0  0  0  0  0  0  0  0  0  0  0
    7.2252    0.3379   -2.3373 O   0  0  0  0  0  0  0  0  0  0  0  0
    4.8314    0.2859   -1.9233 C   0  0  0  0  0  0  0  0  0  0  0  0
   -2.3888   -1.7113   -0.5795 C   0  0  0  0  0  0  0  0  0  0  0  0
   -1.6961   -2.5963    0.0161 O   0  0  0  0  0  0  0  0  0  0  0  0
   -3.7050   -2.1497   -0.7876 O   0  0  0  0  0  0  0  0  0  0  0  0
   -4.3442   -2.9762    0.1737 C   0  0  0  0  0  0  0  0  0  0  0  0
   -3.4671   -4.1639    0.5437 C   0  0  0  0  0  0  0  0  0  0  0  0
  1  2  1  0  0  0  0
  2  3  1  0  0  0  0
  3  4  1  0  0  0  0
  4  5  2  0  0  0  0
  4  6  1  0  0  0  0
  6  7  1  0  0  0  0
  8  7  1  6  0  0  0
  8  9  1  0  0  0  0
  8 27  1  0  0  0  0
  9 10  1  0  0  0  0
 10 11  2  0  0  0  0
 11 12  1  0  0  0  0
 12 13  1  0  0  0  0
 12 14  2  0  0  0  0
 14 15  1  0  0  0  0
 15 16  2  0  0  0  0
 16 17  1  0  0  0  0
 16 10  1  0  0  0  0
 17 18  2  0  0  0  0
 18 19  1  0  0  0  0
 19 20  2  0  0  0  0
 20 21  1  0  0  0  0
 21 22  1  0  0  0  0
 21 23  2  0  0  0  0
 23 24  1  0  0  0  0
 24 25  1  0  0  0  0
 24 26  2  0  0  0  0
 26 19  1  0  0  0  0
 27 28  2  0  0  0  0
 27 29  1  0  0  0  0
 29 30  1  0  0  0  0
 30 31  1  0  0  0  0
M  END
>  <zinc_id>
ZINC001229766999

>  <smiles>
CCOC(=O)CC[C@@H](Oc1cc(O)ccc1/C=C/c1cc(O)cc(O)c1)C(=O)OCC

$$$$
