
 OpenBabel05042123343D

 31 32  0  0  0  0  0  0  0  0999 V2000
   -4.9602   -3.8916    2.8257 C   0  0  0  0  0  0  0  0  0  0  0  0
   -5.1553   -3.5358    1.5088 C   0  0  0  0  0  0  0  0  0  0  0  0
   -4.8074   -2.1892    1.2732 O   0  0  0  0  0  0  0  0  0  0  0  0
   -4.5133   -1.6977    0.0168 C   0  0  0  0  0  0  0  0  0  0  0  0
   -4.5837   -2.4993   -0.9604 O   0  0  0  0  0  0  0  0  0  0  0  0
   -4.5425   -0.2224   -0.2295 C   0  0  0  0  0  0  0  0  0  0  0  0
   -3.3620    0.4640    0.4160 C   0  0  0  0  0  0  0  0  0  0  0  0
   -2.2944    0.5873   -0.8492 C   0  0  2  0  0  0  0  0  0  0  0  0
   -1.0653    0.3575    0.0719 O   0  0  0  0  0  0  0  0  0  0  0  0
    0.0756    0.5894   -0.7037 C   0  0  0  0  0  0  0  0  0  0  0  0
    0.6397    1.8515   -0.8513 C   0  0  0  0  0  0  0  0  0  0  0  0
    1.3859    2.1011   -1.9701 C   0  0  0  0  0  0  0  0  0  0  0  0
    2.0483    3.3266   -2.0481 O   0  0  0  0  0  0  0  0  0  0  0  0
    1.8483    1.0051   -2.6875 C   0  0  0  0  0  0  0  0  0  0  0  0
    1.3559   -0.2746   -2.4484 C   0  0  0  0  0  0  0  0  0  0  0  0
    0.6598   -0.5378   -1.2742 C   0  0  0  0  0  0  0  0  0  0  0  0
    0.9944   -1.6099   -0.3387 C   0  0  0  0  0  0  0  0  0  0  0  0
    2.0427   -2.3357   -0.2745 C   0  0  0  0  0  0  0  0  0  0  0  0
    3.2623   -2.1508    0.5243 C   0  0  0  0  0  0  0  0  0  0  0  0
    3.2584   -1.5496    1.7708 C   0  0  0  0  0  0  0  0  0  0  0  0
    4.2919   -0.7283    2.2039 C   0  0  0  0  0  0  0  0  0  0  0  0
    4.1463   -0.0402    3.3885 O   0  0  0  0  0  0  0  0  0  0  0  0
    5.2978   -0.3654    1.3170 C   0  0  0  0  0  0  0  0  0  0  0  0
    5.3060   -0.9116    0.0461 C   0  0  0  0  0  0  0  0  0  0  0  0
    6.1982   -0.4057   -0.9049 O   0  0  0  0  0  0  0  0  0  0  0  0
    4.4247   -1.9348   -0.2116 C   0  0  0  0  0  0  0  0  0  0  0  0
   -2.1778    2.2030   -0.7238 C   0  0  0  0  0  0  0  0  0  0  0  0
   -2.7375    2.8138   -1.6843 O   0  0  0  0  0  0  0  0  0  0  0  0
   -2.0593    2.7338    0.5224 O   0  0  0  0  0  0  0  0  0  0  0  0
   -1.9996    4.1493    0.6451 C   0  0  0  0  0  0  0  0  0  0  0  0
   -2.9780    4.6982    1.6295 C   0  0  0  0  0  0  0  0  0  0  0  0
  1  2  1  0  0  0  0
  2  3  1  0  0  0  0
  3  4  1  0  0  0  0
  4  5  2  0  0  0  0
  4  6  1  0  0  0  0
  6  7  1  0  0  0  0
  8  7  1  1  0  0  0
  8  9  1  0  0  0  0
  8 27  1  0  0  0  0
  9 10  1  0  0  0  0
 10 11  2  0  0  0  0
 11 12  1  0  0  0  0
 12 13  1  0  0  0  0
 12 14  2  0  0  0  0
 14 15  1  0  0  0  0
 15 16  2  0  0  0  0
 16 17  1  0  0  0  0
 16 10  1  0  0  0  0
 17 18  2  0  0  0  0
 18 19  1  0  0  0  0
 19 20  2  0  0  0  0
 20 21  1  0  0  0  0
 21 22  1  0  0  0  0
 21 23  2  0  0  0  0
 23 24  1  0  0  0  0
 24 25  1  0  0  0  0
 24 26  2  0  0  0  0
 26 19  1  0  0  0  0
 27 28  2  0  0  0  0
 27 29  1  0  0  0  0
 29 30  1  0  0  0  0
 30 31  1  0  0  0  0
M  END
>  <zinc_id>
ZINC001229767001

>  <smiles>
CCOC(=O)CC[C@H](Oc1cc(O)ccc1/C=C/c1cc(O)cc(O)c1)C(=O)OCC

$$$$
