
 OpenBabel05042123343D

 32 33  0  0  0  0  0  0  0  0999 V2000
   -3.9398   -5.1073   -2.2185 C   0  0  0  0  0  0  0  0  0  0  0  0
   -4.0310   -3.9069   -2.1389 C   0  0  0  0  0  0  0  0  0  0  0  0
   -3.6792   -3.1937   -0.9387 C   0  0  0  0  0  0  0  0  0  0  0  0
   -4.2023   -3.5249    0.1416 O   0  0  0  0  0  0  0  0  0  0  0  0
   -2.6987   -2.2336   -0.9442 O   0  0  0  0  0  0  0  0  0  0  0  0
   -2.3424   -1.4603    0.1884 C   0  0  0  0  0  0  0  0  0  0  0  0
   -2.1831    0.0273   -0.5774 C   0  0  1  0  0  0  0  0  0  0  0  0
   -2.9790    0.8170    0.6715 C   0  0  0  0  0  0  0  0  0  0  0  0
   -2.4594    2.1447    0.5706 O   0  0  0  0  0  0  0  0  0  0  0  0
   -2.5758    2.8576   -0.6278 C   0  0  0  0  0  0  0  0  0  0  0  0
   -2.7442    2.1377   -1.6595 O   0  0  0  0  0  0  0  0  0  0  0  0
   -3.0132    4.2496   -0.6772 C   0  0  0  0  0  0  0  0  0  0  0  0
   -2.8188    5.0489    0.3499 C   0  0  0  0  0  0  0  0  0  0  0  0
   -4.0435    4.6522   -1.6673 C   0  0  0  0  0  0  0  0  0  0  0  0
   -0.7855    0.3337    0.0507 O   0  0  0  0  0  0  0  0  0  0  0  0
   -0.4806   -0.1733    1.2628 C   0  0  0  0  0  0  0  0  0  0  0  0
   -1.1904   -0.0573    2.4367 C   0  0  0  0  0  0  0  0  0  0  0  0
   -0.6145    0.0385    3.6852 C   0  0  0  0  0  0  0  0  0  0  0  0
   -1.3415   -0.2532    4.8463 O   0  0  0  0  0  0  0  0  0  0  0  0
    0.7503    0.2952    3.7540 C   0  0  0  0  0  0  0  0  0  0  0  0
    1.4781   -0.1622    2.6623 C   0  0  0  0  0  0  0  0  0  0  0  0
    0.8583   -0.5025    1.4624 C   0  0  0  0  0  0  0  0  0  0  0  0
    1.6302   -0.9619    0.2983 C   0  0  0  0  0  0  0  0  0  0  0  0
    2.8781   -1.3559    0.3967 C   0  0  0  0  0  0  0  0  0  0  0  0
    3.9753   -0.8779   -0.4543 C   0  0  0  0  0  0  0  0  0  0  0  0
    3.8833   -0.9411   -1.8301 C   0  0  0  0  0  0  0  0  0  0  0  0
    4.9116   -0.3727   -2.5595 C   0  0  0  0  0  0  0  0  0  0  0  0
    5.1701   -0.8054   -3.8573 O   0  0  0  0  0  0  0  0  0  0  0  0
    5.8670    0.3955   -1.9455 C   0  0  0  0  0  0  0  0  0  0  0  0
    5.6193    0.8487   -0.6584 C   0  0  0  0  0  0  0  0  0  0  0  0
    6.3199    1.9428   -0.1439 O   0  0  0  0  0  0  0  0  0  0  0  0
    4.7811    0.1006    0.1212 C   0  0  0  0  0  0  0  0  0  0  0  0
  1  2  2  0  0  0  0
  2  3  1  0  0  0  0
  3  4  2  0  0  0  0
  3  5  1  0  0  0  0
  5  6  1  0  0  0  0
  7  6  1  1  0  0  0
  7  8  1  0  0  0  0
  7 15  1  0  0  0  0
  8  9  1  0  0  0  0
  9 10  1  0  0  0  0
 10 11  2  0  0  0  0
 10 12  1  0  0  0  0
 12 13  2  0  0  0  0
 12 14  1  0  0  0  0
 15 16  1  0  0  0  0
 16 17  2  0  0  0  0
 17 18  1  0  0  0  0
 18 19  1  0  0  0  0
 18 20  2  0  0  0  0
 20 21  1  0  0  0  0
 21 22  2  0  0  0  0
 22 23  1  0  0  0  0
 22 16  1  0  0  0  0
 23 24  2  0  0  0  0
 24 25  1  0  0  0  0
 25 26  2  0  0  0  0
 26 27  1  0  0  0  0
 27 28  1  0  0  0  0
 27 29  2  0  0  0  0
 29 30  1  0  0  0  0
 30 31  1  0  0  0  0
 30 32  2  0  0  0  0
 32 25  1  0  0  0  0
M  END
>  <zinc_id>
ZINC001229767002

>  <smiles>
C=CC(=O)OC[C@@H](COC(=O)C(=C)C)Oc1cc(O)ccc1/C=C/c1cc(O)cc(O)c1

$$$$
