
 OpenBabel05042123343D

 18 19  0  0  0  0  0  0  0  0999 V2000
    5.2800    0.5407   -0.3579 O   0  0  0  0  0  0  0  0  0  0  0  0
    3.9087    0.7884   -0.2380 C   0  0  0  0  0  0  0  0  0  0  0  0
    3.0505    0.6506   -1.3228 C   0  0  0  0  0  0  0  0  0  0  0  0
    1.8073    0.0479   -1.1709 C   0  0  0  0  0  0  0  0  0  0  0  0
    1.3626   -0.3953    0.0702 C   0  0  0  0  0  0  0  0  0  0  0  0
    0.7365   -1.7145    0.2390 C   0  0  0  0  0  0  0  0  0  0  0  0
   -0.4223   -1.8720   -0.4024 C   0  0  0  0  0  0  0  0  0  0  0  0
   -1.4402   -0.8670   -0.0706 C   0  0  0  0  0  0  0  0  0  0  0  0
   -1.4805    0.3801   -0.6285 C   0  0  0  0  0  0  0  0  0  0  0  0
   -2.5024    1.2520   -0.2768 C   0  0  0  0  0  0  0  0  0  0  0  0
   -2.2714    2.6269   -0.1628 O   0  0  0  0  0  0  0  0  0  0  0  0
   -3.6429    0.7498    0.2888 C   0  0  0  0  0  0  0  0  0  0  0  0
   -3.7722   -0.6129    0.5003 C   0  0  0  0  0  0  0  0  0  0  0  0
   -4.8324   -1.0961    1.2366 O   0  0  0  0  0  0  0  0  0  0  0  0
   -2.6158   -1.3603    0.4822 C   0  0  0  0  0  0  0  0  0  0  0  0
    2.0559    0.1290    1.1550 C   0  0  0  0  0  0  0  0  0  0  0  0
    1.4982   -0.0168    2.4092 O   0  0  0  0  0  0  0  0  0  0  0  0
    3.2806    0.7697    1.0024 C   0  0  0  0  0  0  0  0  0  0  0  0
  1  2  1  0  0  0  0
  2  3  2  0  0  0  0
  3  4  1  0  0  0  0
  4  5  2  0  0  0  0
  5  6  1  0  0  0  0
  5 16  1  0  0  0  0
  6  7  2  0  0  0  0
  7  8  1  0  0  0  0
  8  9  2  0  0  0  0
  9 10  1  0  0  0  0
 10 11  1  0  0  0  0
 10 12  2  0  0  0  0
 12 13  1  0  0  0  0
 13 14  1  0  0  0  0
 13 15  2  0  0  0  0
 15  8  1  0  0  0  0
 16 17  1  0  0  0  0
 16 18  2  0  0  0  0
 18  2  1  0  0  0  0
M  END
>  <zinc_id>
ZINC000005641949

>  <smiles>
Oc1cc(O)cc(/C=C\c2ccc(O)cc2O)c1

$$$$
