
 OpenBabel05042123343D

 31 33  0  0  0  0  0  0  0  0999 V2000
    6.8118   -0.1797   -1.6480 C   0  0  0  0  0  0  0  0  0  0  0  0
    6.5916    0.0085   -0.6161 C   0  0  0  0  0  0  0  0  0  0  0  0
    7.4804    1.1398   -0.1095 C   0  0  0  0  0  0  0  0  0  0  0  0
    6.9373   -1.2093    0.2337 C   0  0  0  0  0  0  0  0  0  0  0  0
    5.2263    0.3162   -0.3498 O   0  0  0  0  0  0  0  0  0  0  0  0
    4.2475   -0.6551   -0.3005 C   0  0  0  0  0  0  0  0  0  0  0  0
    4.6164   -1.8044    0.0684 O   0  0  0  0  0  0  0  0  0  0  0  0
    2.8648   -0.2807   -0.2443 N   0  0  0  0  0  0  0  0  0  0  0  0
    2.3391    0.5686    0.7299 C   0  0  0  0  0  0  0  0  0  0  0  0
    1.3193   -0.3743    1.6159 C   0  0  1  0  0  0  0  0  0  0  0  0
    0.1851   -0.2891    0.5740 O   0  0  0  0  0  0  0  0  0  0  0  0
   -0.1156    0.9163    0.0375 C   0  0  0  0  0  0  0  0  0  0  0  0
    0.1648    2.1620    0.5292 C   0  0  0  0  0  0  0  0  0  0  0  0
   -0.0886    3.3165   -0.2053 C   0  0  0  0  0  0  0  0  0  0  0  0
   -0.3476    4.5395    0.4223 O   0  0  0  0  0  0  0  0  0  0  0  0
   -0.3412    3.1168   -1.5582 C   0  0  0  0  0  0  0  0  0  0  0  0
   -0.9673    1.9355   -1.9440 C   0  0  0  0  0  0  0  0  0  0  0  0
   -0.9168    0.8312   -1.0979 C   0  0  0  0  0  0  0  0  0  0  0  0
   -1.9820   -0.1862   -1.1295 C   0  0  0  0  0  0  0  0  0  0  0  0
   -3.2115    0.3006   -1.0987 C   0  0  0  0  0  0  0  0  0  0  0  0
   -4.3615   -0.3621   -0.5414 C   0  0  0  0  0  0  0  0  0  0  0  0
   -4.6940   -1.6637   -0.7786 C   0  0  0  0  0  0  0  0  0  0  0  0
   -5.6955   -2.2263   -0.0272 C   0  0  0  0  0  0  0  0  0  0  0  0
   -5.8328   -3.6038    0.0230 O   0  0  0  0  0  0  0  0  0  0  0  0
   -6.5020   -1.4815    0.8242 C   0  0  0  0  0  0  0  0  0  0  0  0
   -6.2244   -0.1321    0.9953 C   0  0  0  0  0  0  0  0  0  0  0  0
   -6.7403    0.5336    2.1123 O   0  0  0  0  0  0  0  0  0  0  0  0
   -5.2586    0.4128    0.1797 C   0  0  0  0  0  0  0  0  0  0  0  0
    1.9987   -1.8479    0.9527 C   0  0  1  0  0  0  0  0  0  0  0  0
    0.6559   -2.5487    0.8951 F   0  0  0  0  0  0  0  0  0  0  0  0
    1.8408   -1.2530   -0.5895 C   0  0  0  0  0  0  0  0  0  0  0  0
  1  2  1  0  0  0  0
  2  3  1  0  0  0  0
  2  4  1  0  0  0  0
  2  5  1  0  0  0  0
  5  6  1  0  0  0  0
  6  7  2  0  0  0  0
  6  8  1  0  0  0  0
  8  9  1  0  0  0  0
  9 10  1  0  0  0  0
 10 11  1  6  0  0  0
 10 29  1  0  0  0  0
 11 12  1  0  0  0  0
 12 13  2  0  0  0  0
 13 14  1  0  0  0  0
 14 15  1  0  0  0  0
 14 16  2  0  0  0  0
 16 17  1  0  0  0  0
 17 18  2  0  0  0  0
 18 19  1  0  0  0  0
 18 12  1  0  0  0  0
 19 20  2  0  0  0  0
 20 21  1  0  0  0  0
 21 22  2  0  0  0  0
 22 23  1  0  0  0  0
 23 24  1  0  0  0  0
 23 25  2  0  0  0  0
 25 26  1  0  0  0  0
 26 27  1  0  0  0  0
 26 28  2  0  0  0  0
 28 21  1  0  0  0  0
 29 30  1  6  0  0  0
 29 31  1  0  0  0  0
 31  8  1  0  0  0  0
M  END
>  <zinc_id>
ZINC001229767054

>  <smiles>
CC(C)(C)OC(=O)N1C[C@H](F)[C@H](Oc2cc(O)ccc2/C=C/c2cc(O)cc(O)c2)C1

$$$$
