
 OpenBabel05042123343D

 32 35  0  0  0  0  0  0  0  0999 V2000
   -8.9024    2.3645    0.1033 O   0  0  0  0  0  0  0  0  0  0  0  0
   -7.7805    2.1655    0.4442 N   0  3  0  0  0  0  0  0  0  0  0  0
   -7.0785    3.1599    1.1038 O   0  5  0  0  0  0  0  0  0  0  0  0
   -6.9972    1.0122    0.1050 C   0  0  0  0  0  0  0  0  0  0  0  0
   -6.1084    1.0330   -0.9654 C   0  0  0  0  0  0  0  0  0  0  0  0
   -4.9250    0.3180   -0.8690 C   0  0  0  0  0  0  0  0  0  0  0  0
   -4.5433   -0.1299    0.3918 C   0  0  0  0  0  0  0  0  0  0  0  0
   -3.2392   -0.6968    0.5094 N   0  0  0  0  0  0  0  0  0  0  0  0
   -2.6797   -1.5162   -0.5340 C   0  0  0  0  0  0  0  0  0  0  0  0
   -1.3356   -0.9880   -0.8792 C   0  0  0  0  0  0  0  0  0  0  0  0
   -1.3641    0.4689   -0.0453 C   0  0  2  0  0  0  0  0  0  0  0  0
    0.0550    0.2904    0.5885 O   0  0  0  0  0  0  0  0  0  0  0  0
    0.8433   -0.7200    0.1985 C   0  0  0  0  0  0  0  0  0  0  0  0
    0.6331   -1.9972    0.7113 C   0  0  0  0  0  0  0  0  0  0  0  0
    1.4186   -3.0763    0.3221 C   0  0  0  0  0  0  0  0  0  0  0  0
    1.9863   -3.9518    1.2555 O   0  0  0  0  0  0  0  0  0  0  0  0
    2.0257   -2.9368   -0.9216 C   0  0  0  0  0  0  0  0  0  0  0  0
    2.1037   -1.6894   -1.5312 C   0  0  0  0  0  0  0  0  0  0  0  0
    1.7027   -0.5353   -0.8779 C   0  0  0  0  0  0  0  0  0  0  0  0
    2.5531    0.6631   -0.7989 C   0  0  0  0  0  0  0  0  0  0  0  0
    3.7355    0.7498   -1.3518 C   0  0  0  0  0  0  0  0  0  0  0  0
    4.9672    1.1651   -0.6959 C   0  0  0  0  0  0  0  0  0  0  0  0
    6.1347    1.0226   -1.4387 C   0  0  0  0  0  0  0  0  0  0  0  0
    7.3752    0.8569   -0.8603 C   0  0  0  0  0  0  0  0  0  0  0  0
    8.4972    0.4397   -1.5679 O   0  0  0  0  0  0  0  0  0  0  0  0
    7.4553    0.7901    0.5216 C   0  0  0  0  0  0  0  0  0  0  0  0
    6.3191    0.8482    1.2811 C   0  0  0  0  0  0  0  0  0  0  0  0
    6.4237    0.5733    2.6405 O   0  0  0  0  0  0  0  0  0  0  0  0
    5.1459    1.1971    0.6640 C   0  0  0  0  0  0  0  0  0  0  0  0
   -2.0929   -0.2597    1.2797 C   0  0  0  0  0  0  0  0  0  0  0  0
   -5.5647   -0.6205    1.1376 N   0  0  0  0  0  0  0  0  0  0  0  0
   -6.7638   -0.0006    1.0281 C   0  0  0  0  0  0  0  0  0  0  0  0
  1  2  2  0  0  0  0
  2  3  1  0  0  0  0
  2  4  1  0  0  0  0
  4  5  2  0  0  0  0
  5  6  1  0  0  0  0
  6  7  2  0  0  0  0
  7  8  1  0  0  0  0
  7 31  1  0  0  0  0
  8  9  1  0  0  0  0
  9 10  1  0  0  0  0
 10 11  1  0  0  0  0
 11 12  1  1  0  0  0
 11 30  1  0  0  0  0
 12 13  1  0  0  0  0
 13 14  2  0  0  0  0
 14 15  1  0  0  0  0
 15 16  1  0  0  0  0
 15 17  2  0  0  0  0
 17 18  1  0  0  0  0
 18 19  2  0  0  0  0
 19 20  1  0  0  0  0
 19 13  1  0  0  0  0
 20 21  2  0  0  0  0
 21 22  1  0  0  0  0
 22 23  2  0  0  0  0
 23 24  1  0  0  0  0
 24 25  1  0  0  0  0
 24 26  2  0  0  0  0
 26 27  1  0  0  0  0
 27 28  1  0  0  0  0
 27 29  2  0  0  0  0
 29 22  1  0  0  0  0
 30  8  1  0  0  0  0
 31 32  2  0  0  0  0
 32  4  1  0  0  0  0
M  CHG  2   2   1   3  -1
M  END
>  <zinc_id>
ZINC001229767275

>  <smiles>
O=[N+]([O-])c1ccc(N2CC[C@H](Oc3cc(O)ccc3/C=C/c3cc(O)cc(O)c3)C2)nc1

$$$$
