
 OpenBabel05042123343D

 31 33  0  0  0  0  0  0  0  0999 V2000
    1.7618   -4.8333    1.1167 O   0  0  0  0  0  0  0  0  0  0  0  0
    1.5729   -3.7766    0.3312 C   0  0  0  0  0  0  0  0  0  0  0  0
    2.4689   -3.5150   -0.7005 C   0  0  0  0  0  0  0  0  0  0  0  0
    2.3339   -2.3353   -1.4250 C   0  0  0  0  0  0  0  0  0  0  0  0
    1.4715   -1.3470   -0.9593 C   0  0  0  0  0  0  0  0  0  0  0  0
    1.7522    0.0681   -0.9675 C   0  0  0  0  0  0  0  0  0  0  0  0
    2.7928    0.7237   -1.3097 C   0  0  0  0  0  0  0  0  0  0  0  0
    3.8405    1.3163   -0.5008 C   0  0  0  0  0  0  0  0  0  0  0  0
    3.9979    2.6850   -0.3190 C   0  0  0  0  0  0  0  0  0  0  0  0
    5.2465    3.2373   -0.0526 C   0  0  0  0  0  0  0  0  0  0  0  0
    5.4563    4.6173   -0.1432 O   0  0  0  0  0  0  0  0  0  0  0  0
    6.3145    2.4020    0.2560 C   0  0  0  0  0  0  0  0  0  0  0  0
    6.1728    1.0394    0.0895 C   0  0  0  0  0  0  0  0  0  0  0  0
    7.2201    0.1454    0.3083 O   0  0  0  0  0  0  0  0  0  0  0  0
    5.0410    0.6085   -0.5452 C   0  0  0  0  0  0  0  0  0  0  0  0
    0.3911   -1.7044   -0.1515 C   0  0  0  0  0  0  0  0  0  0  0  0
   -0.8143   -1.1695   -0.5504 O   0  0  0  0  0  0  0  0  0  0  0  0
   -1.4426   -0.0235   -0.0804 C   0  0  0  0  0  0  0  0  0  0  0  0
   -2.6274   -0.5307    0.9505 C   0  0  2  0  0  0  0  0  0  0  0  0
   -3.1894   -1.6480   -0.1250 C   0  0  0  0  0  0  0  0  0  0  0  0
   -4.3880   -2.0515    0.4546 O   0  0  0  0  0  0  0  0  0  0  0  0
   -5.4873   -1.5456   -0.2237 C   0  0  0  0  0  0  0  0  0  0  0  0
   -6.4445   -0.8240    0.7077 C   0  0  0  0  0  0  0  0  0  0  0  0
   -7.0804    0.1989    0.0109 O   0  0  0  0  0  0  0  0  0  0  0  0
   -6.5741    1.4528    0.3126 C   0  0  0  0  0  0  0  0  0  0  0  0
   -5.4853    1.8664   -0.6693 C   0  0  0  0  0  0  0  0  0  0  0  0
   -4.8034    2.9568   -0.1121 O   0  0  0  0  0  0  0  0  0  0  0  0
   -3.4398    2.7370   -0.3434 C   0  0  0  0  0  0  0  0  0  0  0  0
   -2.9020    1.7038    0.6186 C   0  0  0  0  0  0  0  0  0  0  0  0
   -3.5925    0.5228    0.4347 O   0  0  0  0  0  0  0  0  0  0  0  0
    0.4363   -2.9771    0.4112 C   0  0  0  0  0  0  0  0  0  0  0  0
  1  2  1  0  0  0  0
  2  3  2  0  0  0  0
  3  4  1  0  0  0  0
  4  5  2  0  0  0  0
  5  6  1  0  0  0  0
  5 16  1  0  0  0  0
  6  7  2  0  0  0  0
  7  8  1  0  0  0  0
  8  9  2  0  0  0  0
  9 10  1  0  0  0  0
 10 11  1  0  0  0  0
 10 12  2  0  0  0  0
 12 13  1  0  0  0  0
 13 14  1  0  0  0  0
 13 15  2  0  0  0  0
 15  8  1  0  0  0  0
 16 17  1  0  0  0  0
 16 31  2  0  0  0  0
 17 18  1  0  0  0  0
 19 18  1  6  0  0  0
 19 20  1  0  0  0  0
 20 21  1  0  0  0  0
 21 22  1  0  0  0  0
 22 23  1  0  0  0  0
 23 24  1  0  0  0  0
 24 25  1  0  0  0  0
 25 26  1  0  0  0  0
 26 27  1  0  0  0  0
 27 28  1  0  0  0  0
 28 29  1  0  0  0  0
 29 30  1  0  0  0  0
 30 19  1  0  0  0  0
 31  2  1  0  0  0  0
M  END
>  <zinc_id>
ZINC001229767976

>  <smiles>
Oc1cc(O)cc(/C=C/c2ccc(O)cc2OC[C@@H]2COCCOCCOCCO2)c1

$$$$
