
 OpenBabel05042123343D

 30 33  0  0  0  0  0  0  0  0999 V2000
    0.6172   -5.1763    1.4376 O   0  0  0  0  0  0  0  0  0  0  0  0
    0.1242   -4.2205    0.8975 C   0  0  0  0  0  0  0  0  0  0  0  0
   -1.1180   -4.3601    0.2919 C   0  0  0  0  0  0  0  0  0  0  0  0
   -1.8195   -3.2960   -0.2289 C   0  0  0  0  0  0  0  0  0  0  0  0
   -1.1390   -2.1003   -0.4219 C   0  0  0  0  0  0  0  0  0  0  0  0
   -1.8896   -0.8646   -0.6827 C   0  0  0  0  0  0  0  0  0  0  0  0
   -3.2108   -0.8664   -0.5403 C   0  0  0  0  0  0  0  0  0  0  0  0
   -3.9023    0.3135   -0.0567 C   0  0  0  0  0  0  0  0  0  0  0  0
   -3.2284    1.4808    0.1704 C   0  0  0  0  0  0  0  0  0  0  0  0
   -3.9359    2.6111    0.5506 C   0  0  0  0  0  0  0  0  0  0  0  0
   -3.2075    3.6898    1.0172 O   0  0  0  0  0  0  0  0  0  0  0  0
   -5.3041    2.6639    0.4506 C   0  0  0  0  0  0  0  0  0  0  0  0
   -5.9984    1.4736    0.2932 C   0  0  0  0  0  0  0  0  0  0  0  0
   -7.3784    1.4810    0.4438 O   0  0  0  0  0  0  0  0  0  0  0  0
   -5.2744    0.3075    0.0784 C   0  0  0  0  0  0  0  0  0  0  0  0
    0.1145   -1.9120    0.1472 C   0  0  0  0  0  0  0  0  0  0  0  0
    0.9455   -0.8746   -0.2913 O   0  0  0  0  0  0  0  0  0  0  0  0
    1.2955   -1.1863   -1.7808 C   0  0  2  0  0  0  0  0  0  0  0  0
    2.6791   -2.0154   -1.3582 C   0  0  0  0  0  0  0  0  0  0  0  0
    3.2642   -1.0794   -0.3646 C   0  0  0  0  0  0  0  0  0  0  0  0
    2.8805    0.2523   -0.7363 N   0  0  0  0  0  0  0  0  0  0  0  0
    3.4908    1.4181   -0.2351 C   0  0  0  0  0  0  0  0  0  0  0  0
    3.9690    2.3953   -1.1000 C   0  0  0  0  0  0  0  0  0  0  0  0
    4.9741    3.2531   -0.7514 C   0  0  0  0  0  0  0  0  0  0  0  0
    5.6280    3.0636    0.3984 N   0  0  0  0  0  0  0  0  0  0  0  0
    5.0110    2.3114    1.3388 C   0  0  0  0  0  0  0  0  0  0  0  0
    5.6172    2.4431    2.9803 Cl  0  0  0  0  0  0  0  0  0  0  0  0
    3.9484    1.5265    1.0348 N   0  0  0  0  0  0  0  0  0  0  0  0
    2.1485    0.2327   -1.9628 C   0  0  0  0  0  0  0  0  0  0  0  0
    0.6988   -2.9654    0.8293 C   0  0  0  0  0  0  0  0  0  0  0  0
  1  2  1  0  0  0  0
  2  3  2  0  0  0  0
  3  4  1  0  0  0  0
  4  5  2  0  0  0  0
  5  6  1  0  0  0  0
  5 16  1  0  0  0  0
  6  7  2  0  0  0  0
  7  8  1  0  0  0  0
  8  9  2  0  0  0  0
  9 10  1  0  0  0  0
 10 11  1  0  0  0  0
 10 12  2  0  0  0  0
 12 13  1  0  0  0  0
 13 14  1  0  0  0  0
 13 15  2  0  0  0  0
 15  8  1  0  0  0  0
 16 17  1  0  0  0  0
 16 30  2  0  0  0  0
 18 17  1  1  0  0  0
 18 19  1  0  0  0  0
 19 20  1  0  0  0  0
 20 21  1  0  0  0  0
 21 22  1  0  0  0  0
 21 29  1  0  0  0  0
 22 23  2  0  0  0  0
 23 24  1  0  0  0  0
 24 25  2  0  0  0  0
 25 26  1  0  0  0  0
 26 27  1  0  0  0  0
 26 28  2  0  0  0  0
 28 22  1  0  0  0  0
 29 18  1  0  0  0  0
 30  2  1  0  0  0  0
M  END
>  <zinc_id>
ZINC001229768342

>  <smiles>
Oc1cc(O)cc(/C=C/c2ccc(O)cc2O[C@@H]2CCN(c3ccnc(Cl)n3)C2)c1

$$$$
