
 OpenBabel05042123343D

 31 34  0  0  0  0  0  0  0  0999 V2000
   -7.6071   -0.5768    0.4024 C   0  0  0  0  0  0  0  0  0  0  0  0
   -6.8595   -0.4325   -0.4265 C   0  0  0  0  0  0  0  0  0  0  0  0
   -7.2790    0.2512   -1.4131 O   0  0  0  0  0  0  0  0  0  0  0  0
   -5.5025   -0.2354   -0.2170 O   0  0  0  0  0  0  0  0  0  0  0  0
   -4.5933   -0.3179   -1.4463 C   0  0  1  0  0  0  0  0  0  0  0  0
   -4.0757    1.2062   -1.3631 C   0  0  0  0  0  0  0  0  0  0  0  0
   -3.9623    1.3824    0.2526 C   0  0  2  0  0  0  0  0  0  0  0  0
   -2.4615    2.0767    0.1137 C   0  0  0  0  0  0  0  0  0  0  0  0
   -1.5024    0.7520    0.1693 C   0  0  2  0  0  0  0  0  0  0  0  0
   -0.2840    1.4105   -0.4983 O   0  0  0  0  0  0  0  0  0  0  0  0
    0.6854    0.3917   -0.4053 C   0  0  0  0  0  0  0  0  0  0  0  0
    0.5672   -0.7849   -1.1404 C   0  0  0  0  0  0  0  0  0  0  0  0
    1.2582   -1.9415   -0.7909 C   0  0  0  0  0  0  0  0  0  0  0  0
    1.8107   -2.8078   -1.7021 O   0  0  0  0  0  0  0  0  0  0  0  0
    1.4739   -2.0904    0.5750 C   0  0  0  0  0  0  0  0  0  0  0  0
    1.5442   -0.9820    1.4114 C   0  0  0  0  0  0  0  0  0  0  0  0
    1.2611    0.2750    0.8614 C   0  0  0  0  0  0  0  0  0  0  0  0
    2.0324    1.4410    1.2534 C   0  0  0  0  0  0  0  0  0  0  0  0
    3.0908    1.9956    0.8875 C   0  0  0  0  0  0  0  0  0  0  0  0
    4.4750    1.5454    0.6702 C   0  0  0  0  0  0  0  0  0  0  0  0
    4.9222    1.1653   -0.5978 C   0  0  0  0  0  0  0  0  0  0  0  0
    5.3870   -0.1183   -0.8581 C   0  0  0  0  0  0  0  0  0  0  0  0
    5.2443   -0.7550   -2.0824 O   0  0  0  0  0  0  0  0  0  0  0  0
    5.7946   -0.9131    0.2059 C   0  0  0  0  0  0  0  0  0  0  0  0
    5.7858   -0.3293    1.4677 C   0  0  0  0  0  0  0  0  0  0  0  0
    6.3585   -1.0769    2.4802 O   0  0  0  0  0  0  0  0  0  0  0  0
    5.2164    0.9241    1.6753 C   0  0  0  0  0  0  0  0  0  0  0  0
   -2.1232    0.1974   -1.2549 C   0  0  0  0  0  0  0  0  0  0  0  0
   -3.2044   -0.8487   -0.5910 C   0  0  1  0  0  0  0  0  0  0  0  0
   -3.4601   -0.0096    0.6446 N   0  0  0  0  0  0  0  0  0  0  0  0
   -3.9926   -0.6025    1.7166 C   0  0  0  0  0  0  0  0  0  0  0  0
  1  2  1  0  0  0  0
  2  3  2  0  0  0  0
  2  4  1  0  0  0  0
  5  4  1  1  0  0  0
  5  6  1  0  0  0  0
  7  6  1  6  0  0  0
  7  8  1  0  0  0  0
  8  9  1  0  0  0  0
  9 10  1  6  0  0  0
  9 28  1  0  0  0  0
 10 11  1  0  0  0  0
 11 12  2  0  0  0  0
 12 13  1  0  0  0  0
 13 14  1  0  0  0  0
 13 15  2  0  0  0  0
 15 16  1  0  0  0  0
 16 17  2  0  0  0  0
 17 18  1  0  0  0  0
 17 11  1  0  0  0  0
 18 19  2  0  0  0  0
 19 20  1  0  0  0  0
 20 21  2  0  0  0  0
 21 22  1  0  0  0  0
 22 23  1  0  0  0  0
 22 24  2  0  0  0  0
 24 25  1  0  0  0  0
 25 26  1  0  0  0  0
 25 27  2  0  0  0  0
 27 20  1  0  0  0  0
 29 28  1  6  0  0  0
 29 30  1  0  0  0  0
 29  5  1  0  0  0  0
 30 31  1  0  0  0  0
 30  7  1  0  0  0  0
M  END
>  <zinc_id>
ZINC001229769137

>  <smiles>
CC(=O)O[C@H]1C[C@@H]2C[C@H](Oc3cc(O)ccc3/C=C/c3cc(O)cc(O)c3)C[C@H]1N2C

$$$$
