
 OpenBabel05042123343D

 31 34  0  0  0  0  0  0  0  0999 V2000
    6.8692    0.5724   -0.3479 C   0  0  0  0  0  0  0  0  0  0  0  0
    6.0163    0.8156   -0.6733 C   0  0  0  0  0  0  0  0  0  0  0  0
    5.9937    0.3891   -1.8890 O   0  0  0  0  0  0  0  0  0  0  0  0
    4.7636    0.6964   -0.2389 O   0  0  0  0  0  0  0  0  0  0  0  0
    3.6173    1.2631   -1.0794 C   0  0  2  0  0  0  0  0  0  0  0  0
    3.8553    2.8487   -0.8745 C   0  0  0  0  0  0  0  0  0  0  0  0
    3.3449    1.4699   -0.2712 C   0  0  2  0  0  0  0  0  0  0  0  0
    1.7287    1.6453   -0.7571 C   0  0  0  0  0  0  0  0  0  0  0  0
    1.6369   -0.0234   -0.8596 C   0  0  2  0  0  0  0  0  0  0  0  0
    0.3556   -0.0988   -0.0187 O   0  0  0  0  0  0  0  0  0  0  0  0
    0.0866   -1.4542    0.2103 C   0  0  0  0  0  0  0  0  0  0  0  0
    1.0656   -2.4228    0.3521 C   0  0  0  0  0  0  0  0  0  0  0  0
    0.8276   -3.7790    0.2154 C   0  0  0  0  0  0  0  0  0  0  0  0
    1.8098   -4.4965   -0.4785 O   0  0  0  0  0  0  0  0  0  0  0  0
   -0.5095   -4.1296    0.0730 C   0  0  0  0  0  0  0  0  0  0  0  0
   -1.4909   -3.2483    0.5063 C   0  0  0  0  0  0  0  0  0  0  0  0
   -1.1781   -1.8953    0.5682 C   0  0  0  0  0  0  0  0  0  0  0  0
   -2.1994   -0.8697    0.7931 C   0  0  0  0  0  0  0  0  0  0  0  0
   -2.6981   -0.1710   -0.2135 C   0  0  0  0  0  0  0  0  0  0  0  0
   -4.0929    0.2592   -0.0985 C   0  0  0  0  0  0  0  0  0  0  0  0
   -5.0982   -0.6464    0.2135 C   0  0  0  0  0  0  0  0  0  0  0  0
   -6.3275   -0.1579    0.5573 C   0  0  0  0  0  0  0  0  0  0  0  0
   -7.3238   -1.0039    0.9911 O   0  0  0  0  0  0  0  0  0  0  0  0
   -6.5833    1.1944    0.4835 C   0  0  0  0  0  0  0  0  0  0  0  0
   -5.6731    2.0068   -0.1721 C   0  0  0  0  0  0  0  0  0  0  0  0
   -5.9097    3.3778   -0.2973 O   0  0  0  0  0  0  0  0  0  0  0  0
   -4.3984    1.5682   -0.4310 C   0  0  0  0  0  0  0  0  0  0  0  0
    2.5718   -0.2700    0.5036 C   0  0  0  0  0  0  0  0  0  0  0  0
    2.4382    1.3252    0.3002 C   0  0  1  0  0  0  0  0  0  0  0  0
    3.4201    1.9360    1.2011 N   0  0  0  0  0  0  0  0  0  0  0  0
    3.0816    3.2989    1.2293 C   0  0  0  0  0  0  0  0  0  0  0  0
  1  2  1  0  0  0  0
  2  3  2  0  0  0  0
  2  4  1  0  0  0  0
  5  4  1  1  0  0  0
  5  6  1  0  0  0  0
  7  6  1  6  0  0  0
  7  8  1  0  0  0  0
  8  9  1  0  0  0  0
  9 10  1  1  0  0  0
  9 28  1  0  0  0  0
 10 11  1  0  0  0  0
 11 12  2  0  0  0  0
 12 13  1  0  0  0  0
 13 14  1  0  0  0  0
 13 15  2  0  0  0  0
 15 16  1  0  0  0  0
 16 17  2  0  0  0  0
 17 18  1  0  0  0  0
 17 11  1  0  0  0  0
 18 19  2  0  0  0  0
 19 20  1  0  0  0  0
 20 21  2  0  0  0  0
 21 22  1  0  0  0  0
 22 23  1  0  0  0  0
 22 24  2  0  0  0  0
 24 25  1  0  0  0  0
 25 26  1  0  0  0  0
 25 27  2  0  0  0  0
 27 20  1  0  0  0  0
 29 28  1  1  0  0  0
 29 30  1  0  0  0  0
 29  5  1  0  0  0  0
 30 31  1  0  0  0  0
 30  7  1  0  0  0  0
M  END
>  <zinc_id>
ZINC001229769138

>  <smiles>
CC(=O)O[C@@H]1C[C@@H]2C[C@H](Oc3cc(O)ccc3/C=C/c3cc(O)cc(O)c3)C[C@H]1N2C

$$$$
