
 OpenBabel05042123343D

 31 34  0  0  0  0  0  0  0  0999 V2000
    8.2500   -0.0416    0.6416 C   0  0  0  0  0  0  0  0  0  0  0  0
    6.9384   -0.4276    0.3138 C   0  0  0  0  0  0  0  0  0  0  0  0
    5.8833    0.4250    0.0659 C   0  0  0  0  0  0  0  0  0  0  0  0
    4.6259   -0.0256   -0.3033 C   0  0  0  0  0  0  0  0  0  0  0  0
    3.4597    0.7712   -0.0506 N   0  0  0  0  0  0  0  0  0  0  0  0
    2.7566    0.6107    1.2255 C   0  0  0  0  0  0  0  0  0  0  0  0
    2.0095   -0.6097    0.7131 C   0  0  0  0  0  0  0  0  0  0  0  0
    1.1690    0.1420   -0.5098 C   0  0  1  0  0  0  0  0  0  0  0  0
    0.6197    1.2244    0.4640 O   0  0  0  0  0  0  0  0  0  0  0  0
   -0.5661    1.8230    0.0233 C   0  0  0  0  0  0  0  0  0  0  0  0
   -0.5707    2.9124   -0.8416 C   0  0  0  0  0  0  0  0  0  0  0  0
   -1.7075    3.6912   -1.0267 C   0  0  0  0  0  0  0  0  0  0  0  0
   -2.1341    4.1256   -2.2678 O   0  0  0  0  0  0  0  0  0  0  0  0
   -2.5966    3.6905    0.0421 C   0  0  0  0  0  0  0  0  0  0  0  0
   -2.5201    2.7431    1.0569 C   0  0  0  0  0  0  0  0  0  0  0  0
   -1.6294    1.6846    0.9117 C   0  0  0  0  0  0  0  0  0  0  0  0
   -2.0186    0.2916    1.1812 C   0  0  0  0  0  0  0  0  0  0  0  0
   -2.5333   -0.5125    0.2850 C   0  0  0  0  0  0  0  0  0  0  0  0
   -3.8729   -1.0840    0.3013 C   0  0  0  0  0  0  0  0  0  0  0  0
   -4.1333   -2.4040    0.6510 C   0  0  0  0  0  0  0  0  0  0  0  0
   -5.3600   -3.0047    0.3944 C   0  0  0  0  0  0  0  0  0  0  0  0
   -5.5070   -4.3871    0.2685 O   0  0  0  0  0  0  0  0  0  0  0  0
   -6.4323   -2.1319    0.2559 C   0  0  0  0  0  0  0  0  0  0  0  0
   -6.2043   -0.8822   -0.3082 C   0  0  0  0  0  0  0  0  0  0  0  0
   -7.2413    0.0398   -0.4797 O   0  0  0  0  0  0  0  0  0  0  0  0
   -4.8778   -0.4956   -0.4625 C   0  0  0  0  0  0  0  0  0  0  0  0
    2.4432    1.1048   -0.9598 C   0  0  0  0  0  0  0  0  0  0  0  0
    4.4804   -1.3715   -0.3762 N   0  0  0  0  0  0  0  0  0  0  0  0
    5.4922   -2.2311   -0.1421 C   0  0  0  0  0  0  0  0  0  0  0  0
    5.1214   -3.9195    0.1984 Cl  0  0  0  0  0  0  0  0  0  0  0  0
    6.6558   -1.7511    0.2956 N   0  0  0  0  0  0  0  0  0  0  0  0
  1  2  1  0  0  0  0
  2  3  2  0  0  0  0
  3  4  1  0  0  0  0
  4  5  1  0  0  0  0
  4 28  2  0  0  0  0
  5  6  1  0  0  0  0
  6  7  1  0  0  0  0
  7  8  1  0  0  0  0
  8  9  1  1  0  0  0
  8 27  1  0  0  0  0
  9 10  1  0  0  0  0
 10 11  2  0  0  0  0
 11 12  1  0  0  0  0
 12 13  1  0  0  0  0
 12 14  2  0  0  0  0
 14 15  1  0  0  0  0
 15 16  2  0  0  0  0
 16 17  1  0  0  0  0
 16 10  1  0  0  0  0
 17 18  2  0  0  0  0
 18 19  1  0  0  0  0
 19 20  2  0  0  0  0
 20 21  1  0  0  0  0
 21 22  1  0  0  0  0
 21 23  2  0  0  0  0
 23 24  1  0  0  0  0
 24 25  1  0  0  0  0
 24 26  2  0  0  0  0
 26 19  1  0  0  0  0
 27  5  1  0  0  0  0
 28 29  1  0  0  0  0
 29 30  1  0  0  0  0
 29 31  2  0  0  0  0
 31  2  1  0  0  0  0
M  END
>  <zinc_id>
ZINC001229769148

>  <smiles>
Cc1cc(N2CC[C@@H](Oc3cc(O)ccc3/C=C/c3cc(O)cc(O)c3)C2)nc(Cl)n1

$$$$
