
 OpenBabel05042123343D

 22 23  0  0  0  0  0  0  0  0999 V2000
   -6.0269    1.0242   -0.6989 C   0  0  0  0  0  0  0  0  0  0  0  0
   -5.1885    0.5253    0.3232 O   0  0  0  0  0  0  0  0  0  0  0  0
   -3.8761    0.1401    0.1202 C   0  0  0  0  0  0  0  0  0  0  0  0
   -3.3822   -0.2533   -1.1145 C   0  0  0  0  0  0  0  0  0  0  0  0
   -2.1118   -0.7986   -1.2459 C   0  0  0  0  0  0  0  0  0  0  0  0
   -1.2650   -0.7847   -0.1546 C   0  0  0  0  0  0  0  0  0  0  0  0
    0.1518   -1.1261   -0.3340 C   0  0  0  0  0  0  0  0  0  0  0  0
    0.5432   -2.0015   -1.4144 C   0  0  0  0  0  0  0  0  0  0  0  0
    0.8967   -2.8791   -2.0986 N   0  0  0  0  0  0  0  0  0  0  0  0
    1.1222   -0.5169    0.3075 C   0  0  0  0  0  0  0  0  0  0  0  0
    2.3602   -0.1158   -0.3739 C   0  0  0  0  0  0  0  0  0  0  0  0
    2.4482    1.1152   -1.0118 C   0  0  0  0  0  0  0  0  0  0  0  0
    3.6007    1.8823   -0.8981 C   0  0  0  0  0  0  0  0  0  0  0  0
    4.7036    1.4475   -0.1735 C   0  0  0  0  0  0  0  0  0  0  0  0
    5.4080    2.3679    0.6106 O   0  0  0  0  0  0  0  0  0  0  0  0
    4.7244    0.0873    0.1070 C   0  0  0  0  0  0  0  0  0  0  0  0
    3.5766   -0.6858   -0.0201 C   0  0  0  0  0  0  0  0  0  0  0  0
    3.5526   -1.9773    0.5127 O   0  0  0  0  0  0  0  0  0  0  0  0
   -1.6146   -0.0025    0.9237 C   0  0  0  0  0  0  0  0  0  0  0  0
   -2.9524    0.2971    1.1440 C   0  0  0  0  0  0  0  0  0  0  0  0
   -3.4008    0.4864    2.4537 O   0  0  0  0  0  0  0  0  0  0  0  0
   -3.2702    1.7684    3.0357 C   0  0  0  0  0  0  0  0  0  0  0  0
  1  2  1  0  0  0  0
  2  3  1  0  0  0  0
  3  4  2  0  0  0  0
  4  5  1  0  0  0  0
  5  6  2  0  0  0  0
  6  7  1  0  0  0  0
  6 19  1  0  0  0  0
  7  8  1  0  0  0  0
  7 10  2  0  0  0  0
  8  9  3  0  0  0  0
 10 11  1  0  0  0  0
 11 12  2  0  0  0  0
 12 13  1  0  0  0  0
 13 14  2  0  0  0  0
 14 15  1  0  0  0  0
 14 16  1  0  0  0  0
 16 17  2  0  0  0  0
 17 18  1  0  0  0  0
 17 11  1  0  0  0  0
 19 20  2  0  0  0  0
 20 21  1  0  0  0  0
 20  3  1  0  0  0  0
 21 22  1  0  0  0  0
M  END
>  <zinc_id>
ZINC000006490728

>  <smiles>
COc1ccc(/C(C#N)=C/c2ccc(O)cc2O)cc1OC

$$$$
