
 OpenBabel05042123343D

 31 33  0  0  0  0  0  0  0  0999 V2000
    2.7701    4.4169   -0.3617 O   0  0  0  0  0  0  0  0  0  0  0  0
    3.1561    3.4799   -0.1783 S   0  0  0  0  0  0  0  0  0  0  0  0
    2.8757    3.1177    1.2634 O   0  0  0  0  0  0  0  0  0  0  0  0
    4.8397    3.6138   -0.2627 O   0  0  0  0  0  0  0  0  0  0  0  0
    2.5228    2.2620   -1.2970 C   0  0  0  0  0  0  0  0  0  0  0  0
    2.3665    0.8644   -0.4338 C   0  0  2  0  0  0  0  0  0  0  0  0
    3.0828   -0.0216   -1.6281 C   0  0  0  0  0  0  0  0  0  0  0  0
    3.6994   -1.1473   -0.9309 N   0  3  0  0  0  0  0  0  0  0  0  0
    3.2540   -2.4133   -1.1212 C   0  0  0  0  0  0  0  0  0  0  0  0
    3.6161   -3.4549   -0.2760 C   0  0  0  0  0  0  0  0  0  0  0  0
    4.8123   -3.3370    0.3873 C   0  0  0  0  0  0  0  0  0  0  0  0
    5.4118   -2.0879    0.4436 C   0  0  0  0  0  0  0  0  0  0  0  0
    4.8915   -1.0324   -0.2955 C   0  0  0  0  0  0  0  0  0  0  0  0
    0.9536    0.5901   -0.9984 O   0  0  0  0  0  0  0  0  0  0  0  0
    0.1603    0.1155    0.0525 C   0  0  0  0  0  0  0  0  0  0  0  0
    0.2402    0.6495    1.3352 C   0  0  0  0  0  0  0  0  0  0  0  0
   -0.5239    0.1080    2.3630 C   0  0  0  0  0  0  0  0  0  0  0  0
   -1.2516    0.9200    3.2400 O   0  0  0  0  0  0  0  0  0  0  0  0
   -0.8455   -1.2348    2.2028 C   0  0  0  0  0  0  0  0  0  0  0  0
   -0.7083   -1.8596    0.9674 C   0  0  0  0  0  0  0  0  0  0  0  0
   -0.4238   -1.1242   -0.1811 C   0  0  0  0  0  0  0  0  0  0  0  0
   -1.2944   -1.1876   -1.3690 C   0  0  0  0  0  0  0  0  0  0  0  0
   -2.2731   -0.4099   -1.6525 C   0  0  0  0  0  0  0  0  0  0  0  0
   -3.6973   -0.5385   -1.5221 C   0  0  0  0  0  0  0  0  0  0  0  0
   -4.4379    0.5997   -1.8366 C   0  0  0  0  0  0  0  0  0  0  0  0
   -5.6173    0.9185   -1.1848 C   0  0  0  0  0  0  0  0  0  0  0  0
   -6.4909    1.9021   -1.6339 O   0  0  0  0  0  0  0  0  0  0  0  0
   -6.0266    0.1617   -0.0918 C   0  0  0  0  0  0  0  0  0  0  0  0
   -5.2363   -0.9046    0.3188 C   0  0  0  0  0  0  0  0  0  0  0  0
   -5.4556   -1.5720    1.5268 O   0  0  0  0  0  0  0  0  0  0  0  0
   -4.3705   -1.3941   -0.6547 C   0  0  0  0  0  0  0  0  0  0  0  0
  1  2  2  0  0  0  0
  2  3  2  0  0  0  0
  2  4  1  0  0  0  0
  2  5  1  0  0  0  0
  6  5  1  6  0  0  0
  6  7  1  0  0  0  0
  6 14  1  0  0  0  0
  7  8  1  0  0  0  0
  8  9  2  0  0  0  0
  9 10  1  0  0  0  0
 10 11  2  0  0  0  0
 11 12  1  0  0  0  0
 12 13  2  0  0  0  0
 13  8  1  0  0  0  0
 14 15  1  0  0  0  0
 15 16  2  0  0  0  0
 16 17  1  0  0  0  0
 17 18  1  0  0  0  0
 17 19  2  0  0  0  0
 19 20  1  0  0  0  0
 20 21  2  0  0  0  0
 21 22  1  0  0  0  0
 21 15  1  0  0  0  0
 22 23  2  0  0  0  0
 23 24  1  0  0  0  0
 24 25  2  0  0  0  0
 25 26  1  0  0  0  0
 26 27  1  0  0  0  0
 26 28  2  0  0  0  0
 28 29  1  0  0  0  0
 29 30  1  0  0  0  0
 29 31  2  0  0  0  0
 31 24  1  0  0  0  0
M  CHG  1   8   1
M  END
>  <zinc_id>
ZINC001229769563

>  <smiles>
O=S(=O)(O)C[C@H](C[n+]1ccccc1)Oc1cc(O)ccc1/C=C/c1cc(O)cc(O)c1

$$$$
