
 OpenBabel05042123343D

 32 35  0  0  0  0  0  0  0  0999 V2000
   -3.2586   -2.8604    0.1733 O   0  0  0  0  0  0  0  0  0  0  0  0
   -2.9635   -2.5971    0.0926 N   0  3  0  0  0  0  0  0  0  0  0  0
   -2.9407   -2.4155   -1.2800 O   0  5  0  0  0  0  0  0  0  0  0  0
   -2.1880   -2.0951    1.1197 C   0  0  0  0  0  0  0  0  0  0  0  0
   -1.5943   -0.6054    0.7562 C   0  0  1  0  0  0  0  0  0  0  0  0
   -0.8363   -1.1481   -0.4783 O   0  0  0  0  0  0  0  0  0  0  0  0
    0.2723   -1.8862   -0.0359 C   0  0  0  0  0  0  0  0  0  0  0  0
    0.1943   -3.2304    0.3020 C   0  0  0  0  0  0  0  0  0  0  0  0
    0.9420   -3.7185    1.3693 C   0  0  0  0  0  0  0  0  0  0  0  0
    0.5097   -4.8552    2.0625 O   0  0  0  0  0  0  0  0  0  0  0  0
    1.9488   -2.9212    1.8892 C   0  0  0  0  0  0  0  0  0  0  0  0
    2.2707   -1.7913    1.1900 C   0  0  0  0  0  0  0  0  0  0  0  0
    1.5351   -1.3244    0.1035 C   0  0  0  0  0  0  0  0  0  0  0  0
    1.8187   -0.0644   -0.5529 C   0  0  0  0  0  0  0  0  0  0  0  0
    2.7587    0.1648   -1.4322 C   0  0  0  0  0  0  0  0  0  0  0  0
    3.8800    1.0976   -1.2079 C   0  0  0  0  0  0  0  0  0  0  0  0
    5.1054    0.6356   -0.7352 C   0  0  0  0  0  0  0  0  0  0  0  0
    5.7439    1.2116    0.3533 C   0  0  0  0  0  0  0  0  0  0  0  0
    6.5930    0.4884    1.1969 O   0  0  0  0  0  0  0  0  0  0  0  0
    5.2662    2.4083    0.8732 C   0  0  0  0  0  0  0  0  0  0  0  0
    4.3954    3.1109    0.0487 C   0  0  0  0  0  0  0  0  0  0  0  0
    3.9126    4.3135    0.5748 O   0  0  0  0  0  0  0  0  0  0  0  0
    3.6119    2.4192   -0.8677 C   0  0  0  0  0  0  0  0  0  0  0  0
   -2.8888   -0.1737   -0.1249 C   0  0  0  0  0  0  0  0  0  0  0  0
   -4.0456   -0.2306    0.6530 C   0  0  0  0  0  0  0  0  0  0  0  0
   -5.0759    0.6628    0.5203 C   0  0  0  0  0  0  0  0  0  0  0  0
   -4.8050    1.9061   -0.0218 C   0  0  0  0  0  0  0  0  0  0  0  0
   -3.7067    1.9914   -0.8518 C   0  0  0  0  0  0  0  0  0  0  0  0
   -2.7133    1.0205   -0.8139 C   0  0  0  0  0  0  0  0  0  0  0  0
   -3.8196    3.2472   -1.4563 O   0  0  0  0  0  0  0  0  0  0  0  0
   -4.7882    4.0268   -0.7600 C   0  0  0  0  0  0  0  0  0  0  0  0
   -5.1344    3.2128    0.3555 O   0  0  0  0  0  0  0  0  0  0  0  0
  1  2  2  0  0  0  0
  2  3  1  0  0  0  0
  2  4  1  0  0  0  0
  5  4  1  1  0  0  0
  5  6  1  0  0  0  0
  5 24  1  0  0  0  0
  6  7  1  0  0  0  0
  7  8  2  0  0  0  0
  8  9  1  0  0  0  0
  9 10  1  0  0  0  0
  9 11  2  0  0  0  0
 11 12  1  0  0  0  0
 12 13  2  0  0  0  0
 13 14  1  0  0  0  0
 13  7  1  0  0  0  0
 14 15  2  0  0  0  0
 15 16  1  0  0  0  0
 16 17  2  0  0  0  0
 17 18  1  0  0  0  0
 18 19  1  0  0  0  0
 18 20  2  0  0  0  0
 20 21  1  0  0  0  0
 21 22  1  0  0  0  0
 21 23  2  0  0  0  0
 23 16  1  0  0  0  0
 24 25  2  0  0  0  0
 25 26  1  0  0  0  0
 26 27  2  0  0  0  0
 27 28  1  0  0  0  0
 28 29  2  0  0  0  0
 28 30  1  0  0  0  0
 29 24  1  0  0  0  0
 30 31  1  0  0  0  0
 31 32  1  0  0  0  0
 32 27  1  0  0  0  0
M  CHG  2   2   1   3  -1
M  END
>  <zinc_id>
ZINC001229769889

>  <smiles>
O=[N+]([O-])C[C@@H](Oc1cc(O)ccc1/C=C/c1cc(O)cc(O)c1)c1ccc2c(c1)OCO2

$$$$
