
 OpenBabel05042123343D

 31 32  0  0  0  0  0  0  0  0999 V2000
   -4.1848    4.0090    0.4636 C   0  0  0  0  0  0  0  0  0  0  0  0
   -4.1913    2.7774    1.3442 C   0  0  0  0  0  0  0  0  0  0  0  0
   -3.8937    1.6049    0.6296 O   0  0  0  0  0  0  0  0  0  0  0  0
   -2.9928    1.6940   -0.4244 C   0  0  0  0  0  0  0  0  0  0  0  0
   -2.9338    2.8054   -1.0284 O   0  0  0  0  0  0  0  0  0  0  0  0
   -2.5154    0.5143   -1.1775 C   0  0  0  0  0  0  0  0  0  0  0  0
   -1.9838   -0.5803   -0.2910 C   0  0  0  0  0  0  0  0  0  0  0  0
   -3.0726   -0.9411    0.6847 C   0  0  0  0  0  0  0  0  0  0  0  0
   -3.9991   -1.9719    0.1698 C   0  0  0  0  0  0  0  0  0  0  0  0
   -5.0525   -1.7192   -0.4642 O   0  0  0  0  0  0  0  0  0  0  0  0
   -3.5729   -3.2879    0.1881 O   0  0  0  0  0  0  0  0  0  0  0  0
   -4.2151   -4.2948   -0.5561 C   0  0  0  0  0  0  0  0  0  0  0  0
   -5.7212   -4.2470   -0.4220 C   0  0  0  0  0  0  0  0  0  0  0  0
   -0.7656   -0.2614    0.3268 O   0  0  0  0  0  0  0  0  0  0  0  0
   -0.0486    0.9074    0.1015 C   0  0  0  0  0  0  0  0  0  0  0  0
   -0.0266    1.9581    1.0124 C   0  0  0  0  0  0  0  0  0  0  0  0
    0.8064    3.0538    0.8191 C   0  0  0  0  0  0  0  0  0  0  0  0
    1.4201    3.6831    1.9066 O   0  0  0  0  0  0  0  0  0  0  0  0
    1.2901    3.2002   -0.4755 C   0  0  0  0  0  0  0  0  0  0  0  0
    1.3854    2.1012   -1.3198 C   0  0  0  0  0  0  0  0  0  0  0  0
    0.8277    0.8763   -0.9747 C   0  0  0  0  0  0  0  0  0  0  0  0
    1.5525   -0.3428   -1.3558 C   0  0  0  0  0  0  0  0  0  0  0  0
    1.9186   -1.2794   -0.5211 C   0  0  0  0  0  0  0  0  0  0  0  0
    3.3118   -1.6706   -0.2704 C   0  0  0  0  0  0  0  0  0  0  0  0
    4.2727   -1.6095   -1.2591 C   0  0  0  0  0  0  0  0  0  0  0  0
    5.5679   -1.2046   -0.9596 C   0  0  0  0  0  0  0  0  0  0  0  0
    6.5513   -1.1243   -1.9396 O   0  0  0  0  0  0  0  0  0  0  0  0
    5.9891   -1.0969    0.3593 C   0  0  0  0  0  0  0  0  0  0  0  0
    5.0606   -1.2447    1.3641 C   0  0  0  0  0  0  0  0  0  0  0  0
    5.4601   -0.8335    2.6403 O   0  0  0  0  0  0  0  0  0  0  0  0
    3.7554   -1.4753    1.0300 C   0  0  0  0  0  0  0  0  0  0  0  0
  1  2  1  0  0  0  0
  2  3  1  0  0  0  0
  3  4  1  0  0  0  0
  4  5  2  0  0  0  0
  4  6  1  0  0  0  0
  6  7  1  0  0  0  0
  7  8  1  0  0  0  0
  7 14  1  0  0  0  0
  8  9  1  0  0  0  0
  9 10  2  0  0  0  0
  9 11  1  0  0  0  0
 11 12  1  0  0  0  0
 12 13  1  0  0  0  0
 14 15  1  0  0  0  0
 15 16  2  0  0  0  0
 16 17  1  0  0  0  0
 17 18  1  0  0  0  0
 17 19  2  0  0  0  0
 19 20  1  0  0  0  0
 20 21  2  0  0  0  0
 21 22  1  0  0  0  0
 21 15  1  0  0  0  0
 22 23  2  0  0  0  0
 23 24  1  0  0  0  0
 24 25  2  0  0  0  0
 25 26  1  0  0  0  0
 26 27  1  0  0  0  0
 26 28  2  0  0  0  0
 28 29  1  0  0  0  0
 29 30  1  0  0  0  0
 29 31  2  0  0  0  0
 31 24  1  0  0  0  0
M  END
>  <zinc_id>
ZINC001229770979

>  <smiles>
CCOC(=O)CC(CC(=O)OCC)Oc1cc(O)ccc1/C=C/c1cc(O)cc(O)c1

$$$$
