
 OpenBabel05042123343D

 32 35  0  0  0  0  0  0  0  0999 V2000
    3.0488    2.1754    0.6752 O   0  0  0  0  0  0  0  0  0  0  0  0
    2.5041    1.1861    0.9903 C   0  0  0  0  0  0  0  0  0  0  0  0
    1.3618    1.1343    1.8091 C   0  0  0  0  0  0  0  0  0  0  0  0
    0.8323   -0.4204    1.7318 C   0  0  1  0  0  0  0  0  0  0  0  0
    0.3760   -0.3184    0.2560 O   0  0  0  0  0  0  0  0  0  0  0  0
   -0.3810    0.7540   -0.1023 C   0  0  0  0  0  0  0  0  0  0  0  0
    0.0616    1.4693   -1.2147 C   0  0  0  0  0  0  0  0  0  0  0  0
   -0.4418    2.7501   -1.4088 C   0  0  0  0  0  0  0  0  0  0  0  0
   -0.4867    3.1584   -2.7415 O   0  0  0  0  0  0  0  0  0  0  0  0
   -1.3208    3.2440   -0.4522 C   0  0  0  0  0  0  0  0  0  0  0  0
   -1.9223    2.4184    0.4917 C   0  0  0  0  0  0  0  0  0  0  0  0
   -1.5248    1.1009    0.5878 C   0  0  0  0  0  0  0  0  0  0  0  0
   -2.4374   -0.0011    0.9131 C   0  0  0  0  0  0  0  0  0  0  0  0
   -3.2409   -0.4066   -0.0308 C   0  0  0  0  0  0  0  0  0  0  0  0
   -4.5771   -0.8934    0.0371 C   0  0  0  0  0  0  0  0  0  0  0  0
   -5.6293    0.0161    0.0946 C   0  0  0  0  0  0  0  0  0  0  0  0
   -6.8894   -0.5541    0.2316 C   0  0  0  0  0  0  0  0  0  0  0  0
   -7.9287    0.0530    0.9079 O   0  0  0  0  0  0  0  0  0  0  0  0
   -7.1372   -1.8311   -0.2594 C   0  0  0  0  0  0  0  0  0  0  0  0
   -6.0871   -2.5999   -0.7319 C   0  0  0  0  0  0  0  0  0  0  0  0
   -6.2711   -3.9612   -0.9947 O   0  0  0  0  0  0  0  0  0  0  0  0
   -4.8511   -2.0081   -0.7532 C   0  0  0  0  0  0  0  0  0  0  0  0
    2.2470   -1.0685    1.3380 C   0  0  0  0  0  0  0  0  0  0  0  0
    2.2760   -2.2865    1.6094 O   0  0  0  0  0  0  0  0  0  0  0  0
    3.1347   -0.0861    0.9494 N   0  0  0  0  0  0  0  0  0  0  0  0
    4.3583   -0.6151    0.6553 C   0  0  0  0  0  0  0  0  0  0  0  0
    5.5373    0.0210    0.1749 C   0  0  0  0  0  0  0  0  0  0  0  0
    6.6754   -0.3035    0.9281 C   0  0  0  0  0  0  0  0  0  0  0  0
    7.8374   -0.8001    0.4218 C   0  0  0  0  0  0  0  0  0  0  0  0
    7.9908   -0.9275   -0.9185 C   0  0  0  0  0  0  0  0  0  0  0  0
    7.0485   -0.3794   -1.7175 C   0  0  0  0  0  0  0  0  0  0  0  0
    5.8368   -0.0200   -1.1909 C   0  0  0  0  0  0  0  0  0  0  0  0
  1  2  2  0  0  0  0
  2  3  1  0  0  0  0
  3  4  1  0  0  0  0
  4  5  1  6  0  0  0
  4 23  1  0  0  0  0
  5  6  1  0  0  0  0
  6  7  2  0  0  0  0
  7  8  1  0  0  0  0
  8  9  1  0  0  0  0
  8 10  2  0  0  0  0
 10 11  1  0  0  0  0
 11 12  2  0  0  0  0
 12 13  1  0  0  0  0
 12  6  1  0  0  0  0
 13 14  2  0  0  0  0
 14 15  1  0  0  0  0
 15 16  2  0  0  0  0
 16 17  1  0  0  0  0
 17 18  1  0  0  0  0
 17 19  2  0  0  0  0
 19 20  1  0  0  0  0
 20 21  1  0  0  0  0
 20 22  2  0  0  0  0
 22 15  1  0  0  0  0
 23 24  2  0  0  0  0
 23 25  1  0  0  0  0
 25 26  1  0  0  0  0
 25  2  1  0  0  0  0
 26 27  1  0  0  0  0
 27 28  2  0  0  0  0
 28 29  1  0  0  0  0
 29 30  2  0  0  0  0
 30 31  1  0  0  0  0
 31 32  2  0  0  0  0
 32 27  1  0  0  0  0
M  END
>  <zinc_id>
ZINC001229771063

>  <smiles>
O=C1C[C@@H](Oc2cc(O)ccc2/C=C/c2cc(O)cc(O)c2)C(=O)N1Cc1ccccc1

$$$$
