REMARK  Name = 
REMARK  2 active torsions:
REMARK  status: ('A' for Active; 'I' for Inactive)
REMARK    1  A    between atoms: C_5  and  C_6
REMARK    2  A    between atoms: C_7  and  C_8
REMARK                            x       y       z     vdW  Elec       q    Type
REMARK                         _______ _______ _______ _____ _____    ______ ____
ROOT
ATOM      6  C   UNL     1       0.495  -0.898  -0.242  0.00  0.00    +0.000 C 
ATOM      7  C   UNL     1      -0.153  -0.596   0.878  0.00  0.00    +0.000 C 
ENDROOT
BRANCH   7   8
ATOM      8  C   UNL     1      -1.549  -0.144   0.865  0.00  0.00    +0.000 A 
ATOM      9  C   UNL     1      -1.898   1.061   0.303  0.00  0.00    +0.000 A 
ATOM     10  C   UNL     1      -3.133   1.344  -0.218  0.00  0.00    +0.000 A 
ATOM     11  O   UNL     1      -3.550   2.678  -0.180  0.00  0.00    +0.000 OA
ATOM     12  C   UNL     1      -4.040   0.292  -0.262  0.00  0.00    +0.000 A 
ATOM     13  C   UNL     1      -3.799  -0.876   0.442  0.00  0.00    +0.000 A 
ATOM     14  O   UNL     1      -4.816  -1.724   0.863  0.00  0.00    +0.000 OA
ATOM     15  C   UNL     1      -2.502  -1.146   0.856  0.00  0.00    +0.000 A 
ENDBRANCH   7   8
BRANCH   6   5
ATOM      1  O   UNL     1       5.884   0.284  -0.938  0.00  0.00    +0.000 OA
ATOM      2  C   UNL     1       4.529   0.277  -0.592  0.00  0.00    +0.000 A 
ATOM      3  C   UNL     1       4.068  -0.434   0.488  0.00  0.00    +0.000 A 
ATOM      4  C   UNL     1       2.750  -0.813   0.615  0.00  0.00    +0.000 A 
ATOM      5  C   UNL     1       1.899  -0.516  -0.439  0.00  0.00    +0.000 A 
ATOM     16  C   UNL     1       2.231   0.471  -1.354  0.00  0.00    +0.000 A 
ATOM     17  C   UNL     1       3.583   0.740  -1.492  0.00  0.00    +0.000 A 
ENDBRANCH   6   5
TORSDOF 2
