
     RDKit          3D

 17 18  0  0  0  0  0  0  0  0999 V2000
    5.8837    0.2844   -0.9376 O   0  0  0  0  0  0  0  0  0  0  0  0
    4.5291    0.2771   -0.5919 C   0  0  0  0  0  0  0  0  0  0  0  0
    4.0683   -0.4336    0.4876 C   0  0  0  0  0  0  0  0  0  0  0  0
    2.7503   -0.8132    0.6148 C   0  0  0  0  0  0  0  0  0  0  0  0
    1.8992   -0.5165   -0.4391 C   0  0  0  0  0  0  0  0  0  0  0  0
    0.4950   -0.8984   -0.2419 C   0  0  0  0  0  0  0  0  0  0  0  0
   -0.1534   -0.5960    0.8783 C   0  0  0  0  0  0  0  0  0  0  0  0
   -1.5488   -0.1440    0.8652 C   0  0  0  0  0  0  0  0  0  0  0  0
   -1.8981    1.0614    0.3029 C   0  0  0  0  0  0  0  0  0  0  0  0
   -3.1334    1.3441   -0.2180 C   0  0  0  0  0  0  0  0  0  0  0  0
   -3.5496    2.6775   -0.1801 O   0  0  0  0  0  0  0  0  0  0  0  0
   -4.0403    0.2916   -0.2616 C   0  0  0  0  0  0  0  0  0  0  0  0
   -3.7990   -0.8759    0.4424 C   0  0  0  0  0  0  0  0  0  0  0  0
   -4.8156   -1.7245    0.8630 O   0  0  0  0  0  0  0  0  0  0  0  0
   -2.5018   -1.1456    0.8560 C   0  0  0  0  0  0  0  0  0  0  0  0
    2.2309    0.4713   -1.3544 C   0  0  0  0  0  0  0  0  0  0  0  0
    3.5835    0.7403   -1.4918 C   0  0  0  0  0  0  0  0  0  0  0  0
  1  2  1  0
  2  3  2  0
  3  4  1  0
  4  5  2  0
  5  6  1  0
  6  7  2  0
  7  8  1  0
  8  9  2  0
  9 10  1  0
 10 11  1  0
 10 12  2  0
 12 13  1  0
 13 14  1  0
 13 15  2  0
  5 16  1  0
 16 17  2  0
 17  2  1  0
 15  8  1  0
M  END
>  <zinc_id>  (1) 
ZINC000000006787

>  <smiles>  (1) 
Oc1ccc(/C=C/c2cc(O)cc(O)c2)cc1

$$$$
