REMARK  Name = 
REMARK  8 active torsions:
REMARK  status: ('A' for Active; 'I' for Inactive)
REMARK    1  A    between atoms: C_2  and  O_3
REMARK    2  A    between atoms: C_2  and  C_31
REMARK    3  A    between atoms: O_3  and  C_4
REMARK    4  A    between atoms: C_9  and  C_10
REMARK    5  A    between atoms: C_13  and  O_14
REMARK    6  A    between atoms: O_14  and  C_15
REMARK    7  A    between atoms: C_18  and  C_19
REMARK    8  A    between atoms: C_20  and  C_21
REMARK                            x       y       z     vdW  Elec       q    Type
REMARK                         _______ _______ _______ _____ _____    ______ ____
ROOT
ATOM      4  C   UNL     1      -1.542  -2.371  -1.162  0.00  0.00    +0.000 C 
ATOM      5  C   UNL     1      -1.217  -3.488   0.086  0.00  0.00    +0.000 C 
ATOM      6  O   UNL     1      -2.580  -4.121  -0.029  0.00  0.00    +0.000 OA
ATOM      7  C   UNL     1      -1.601  -2.669   1.526  0.00  0.00    +0.000 C 
ATOM      8  O   UNL     1      -0.217  -2.138   1.842  0.00  0.00    +0.000 OA
ATOM      9  C   UNL     1      -2.301  -1.196   1.049  0.00  0.00    +0.000 C 
ATOM     12  O   UNL     1      -1.201  -0.479   0.350  0.00  0.00    +0.000 OA
ATOM     13  C   UNL     1      -0.337  -1.516  -0.283  0.00  0.00    +0.000 C 
ENDROOT
BRANCH   9  10
ATOM     10  C   UNL     1      -1.931  -0.508   2.499  0.00  0.00    +0.000 C 
ATOM     11  O   UNL     1      -3.149   0.218   2.575  0.00  0.00    +0.000 OA
ENDBRANCH   9  10
BRANCH   4   3
ATOM      3  O   UNL     1      -2.842  -1.822  -0.674  0.00  0.00    +0.000 OA
BRANCH   3   2
ATOM      1  O   UNL     1      -3.953  -2.410  -2.355  0.00  0.00    +0.000 OA
ATOM      2  C   UNL     1      -4.028  -2.046  -1.319  0.00  0.00    +0.000 C 
BRANCH   2  31
ATOM     31  C   UNL     1      -5.116  -1.043  -1.157  0.00  0.00    +0.000 A 
ATOM     32  C   UNL     1      -6.179  -1.205  -0.283  0.00  0.00    +0.000 A 
ATOM     33  C   UNL     1      -6.834  -0.107   0.265  0.00  0.00    +0.000 A 
ATOM     34  O   UNL     1      -8.200  -0.066   0.518  0.00  0.00    +0.000 OA
ATOM     35  C   UNL     1      -6.105   1.080   0.326  0.00  0.00    +0.000 A 
ATOM     36  O   UNL     1      -6.737   2.195   0.876  0.00  0.00    +0.000 OA
ATOM     37  C   UNL     1      -5.156   1.355  -0.655  0.00  0.00    +0.000 A 
ATOM     38  O   UNL     1      -4.198   2.304  -0.261  0.00  0.00    +0.000 OA
ATOM     39  C   UNL     1      -4.817   0.280  -1.473  0.00  0.00    +0.000 A 
ENDBRANCH   2  31
ENDBRANCH   3   2
ENDBRANCH   4   3
BRANCH  13  14
ATOM     14  O   UNL     1       0.123  -0.607  -1.460  0.00  0.00    +0.000 OA
BRANCH  14  15
ATOM     15  C   UNL     1       1.196   0.126  -0.935  0.00  0.00    +0.000 A 
ATOM     16  C   UNL     1       2.504  -0.188  -0.889  0.00  0.00    +0.000 A 
ATOM     17  C   UNL     1       3.408   0.717  -0.336  0.00  0.00    +0.000 A 
ATOM     18  C   UNL     1       3.016   1.763   0.443  0.00  0.00    +0.000 A 
ATOM     29  C   UNL     1       1.648   2.025   0.422  0.00  0.00    +0.000 A 
ATOM     30  C   UNL     1       0.842   1.399  -0.508  0.00  0.00    +0.000 A 
BRANCH  18  19
ATOM     19  C   UNL     1       3.704   2.364   1.551  0.00  0.00    +0.000 C 
ATOM     20  C   UNL     1       4.879   1.906   1.866  0.00  0.00    +0.000 C 
BRANCH  20  21
ATOM     21  C   UNL     1       5.864   1.637   0.812  0.00  0.00    +0.000 A 
ATOM     22  C   UNL     1       6.923   2.549   0.843  0.00  0.00    +0.000 A 
ATOM     23  C   UNL     1       8.044   2.325   0.051  0.00  0.00    +0.000 A 
ATOM     24  O   UNL     1       9.052   3.274  -0.043  0.00  0.00    +0.000 OA
ATOM     25  C   UNL     1       8.155   1.100  -0.556  0.00  0.00    +0.000 A 
ATOM     26  C   UNL     1       7.270   0.094  -0.244  0.00  0.00    +0.000 A 
ATOM     27  O   UNL     1       7.220  -1.072  -1.009  0.00  0.00    +0.000 OA
ATOM     28  C   UNL     1       6.392   0.340   0.806  0.00  0.00    +0.000 A 
ENDBRANCH  20  21
ENDBRANCH  18  19
ENDBRANCH  14  15
ENDBRANCH  13  14
TORSDOF 8
