REMARK  Name = 
REMARK  4 active torsions:
REMARK  status: ('A' for Active; 'I' for Inactive)
REMARK    1  A    between atoms: S_2  and  O_5
REMARK    2  A    between atoms: O_5  and  C_6
REMARK    3  A    between atoms: C_11  and  C_12
REMARK    4  A    between atoms: C_13  and  C_14
REMARK                            x       y       z     vdW  Elec       q    Type
REMARK                         _______ _______ _______ _____ _____    ______ ____
ROOT
ATOM      6  C   UNL     1       2.524  -0.055  -0.500  0.00  0.00    +0.000 A 
ATOM      7  C   UNL     1       2.087  -1.324  -0.857  0.00  0.00    +0.000 A 
ATOM      8  C   UNL     1       0.737  -1.635  -0.957  0.00  0.00    +0.000 A 
ATOM      9  O   UNL     1       0.317  -2.965  -0.944  0.00  0.00    +0.000 OA
ATOM     10  C   UNL     1      -0.155  -0.700  -0.465  0.00  0.00    +0.000 A 
ATOM     11  C   UNL     1       0.229   0.535  -0.026  0.00  0.00    +0.000 A 
ATOM     21  C   UNL     1       1.586   0.827   0.018  0.00  0.00    +0.000 A 
ENDROOT
BRANCH  11  12
ATOM     12  C   UNL     1      -0.685   1.626   0.274  0.00  0.00    +0.000 C 
ATOM     13  C   UNL     1      -1.776   1.278   0.956  0.00  0.00    +0.000 C 
BRANCH  13  14
ATOM     14  C   UNL     1      -2.575   0.206   0.345  0.00  0.00    +0.000 A 
ATOM     15  C   UNL     1      -3.200   0.527  -0.852  0.00  0.00    +0.000 A 
ATOM     16  C   UNL     1      -4.364  -0.136  -1.197  0.00  0.00    +0.000 A 
ATOM     17  C   UNL     1      -5.168  -0.738  -0.240  0.00  0.00    +0.000 A 
ATOM     18  O   UNL     1      -6.559  -0.634  -0.274  0.00  0.00    +0.000 OA
ATOM     19  C   UNL     1      -4.565  -1.049   0.962  0.00  0.00    +0.000 A 
ATOM     20  C   UNL     1      -3.299  -0.578   1.236  0.00  0.00    +0.000 A 
ENDBRANCH  13  14
ENDBRANCH  11  12
BRANCH   6   5
ATOM      5  O   UNL     1       3.739   0.342  -1.012  0.00  0.00    +0.000 OA
BRANCH   5   2
ATOM      1  O   UNL     1       5.492   2.248  -0.749  0.00  0.00    +0.000 OA
ATOM      2  S   UNL     1       5.016   0.966  -0.103  0.00  0.00    +0.000 S 
ATOM      3  O   UNL     1       6.137  -0.042  -0.008  0.00  0.00    +0.000 OA
ATOM      4  O   UNL     1       4.484   1.301   1.455  0.00  0.00    +0.000 OA
ENDBRANCH   5   2
ENDBRANCH   6   5
TORSDOF 4
