
     RDKit          3D

 39 42  0  0  0  0  0  0  0  0999 V2000
   -3.3766   -0.3029    1.0052 O   0  0  0  0  0  0  0  0  0  0  0  0
   -3.5046   -0.2444    1.2959 C   0  0  0  0  0  0  0  0  0  0  0  0
   -2.5192    0.4607    1.3649 O   0  0  0  0  0  0  0  0  0  0  0  0
   -2.0542    1.6880    0.6342 C   0  0  1  0  0  0  0  0  0  0  0  0
   -0.5903    1.4751    1.5443 C   0  0  1  0  0  0  0  0  0  0  0  0
   -0.2148    0.2088    0.8089 O   0  0  0  0  0  0  0  0  0  0  0  0
    0.5088   -0.7823    0.7920 C   0  0  0  0  0  0  0  0  0  0  0  0
    1.6547   -1.0602    1.5298 C   0  0  0  0  0  0  0  0  0  0  0  0
    2.7464   -1.6532    0.9074 C   0  0  0  0  0  0  0  0  0  0  0  0
    2.7726   -1.7795   -0.4743 C   0  0  0  0  0  0  0  0  0  0  0  0
    3.8296   -2.6217   -1.0307 C   0  0  0  0  0  0  0  0  0  0  0  0
    4.7948   -1.9009   -1.5850 C   0  0  0  0  0  0  0  0  0  0  0  0
    5.5630   -1.1955   -0.5483 C   0  0  0  0  0  0  0  0  0  0  0  0
    6.8713   -1.6447   -0.4093 C   0  0  0  0  0  0  0  0  0  0  0  0
    7.8706   -0.8256    0.0584 C   0  0  0  0  0  0  0  0  0  0  0  0
    9.1893   -1.2374   -0.1421 O   0  0  0  0  0  0  0  0  0  0  0  0
    7.6040    0.5111    0.1791 C   0  0  0  0  0  0  0  0  0  0  0  0
    6.2918    0.9649    0.1592 C   0  0  0  0  0  0  0  0  0  0  0  0
    6.1026    2.3020    0.4593 O   0  0  0  0  0  0  0  0  0  0  0  0
    5.3188    0.1289   -0.3207 C   0  0  0  0  0  0  0  0  0  0  0  0
    1.5372   -1.9514   -1.0887 C   0  0  0  0  0  0  0  0  0  0  0  0
    0.4159   -1.6131   -0.3341 C   0  0  0  0  0  0  0  0  0  0  0  0
    0.1387    2.5078    0.6882 O   0  0  0  0  0  0  0  0  0  0  0  0
    0.6448    1.6730   -0.4491 C   0  0  2  0  0  0  0  0  0  0  0  0
    1.5737    2.9012   -1.0181 C   0  0  0  0  0  0  0  0  0  0  0  0
    2.6437    2.8286   -0.1082 O   0  0  0  0  0  0  0  0  0  0  0  0
   -0.6647    1.9722   -1.5317 C   0  0  2  0  0  0  0  0  0  0  0  0
   -1.2488    3.1863   -0.8877 O   0  0  0  0  0  0  0  0  0  0  0  0
   -1.6031    0.7840   -0.7327 C   0  0  2  0  0  0  0  0  0  0  0  0
   -2.8340    1.2236   -1.4663 O   0  0  0  0  0  0  0  0  0  0  0  0
   -4.9036   -0.5059    1.4077 C   0  0  0  0  0  0  0  0  0  0  0  0
   -5.8973    0.4685    1.4641 C   0  0  0  0  0  0  0  0  0  0  0  0
   -6.9858    0.4448    0.5892 C   0  0  0  0  0  0  0  0  0  0  0  0
   -7.5596    1.6559    0.2357 O   0  0  0  0  0  0  0  0  0  0  0  0
   -7.3436   -0.7431    0.0034 C   0  0  0  0  0  0  0  0  0  0  0  0
   -8.1258   -0.7006   -1.1394 O   0  0  0  0  0  0  0  0  0  0  0  0
   -6.4688   -1.8232    0.0636 C   0  0  0  0  0  0  0  0  0  0  0  0
   -6.8695   -3.0931   -0.2695 O   0  0  0  0  0  0  0  0  0  0  0  0
   -5.3082   -1.7068    0.8154 C   0  0  0  0  0  0  0  0  0  0  0  0
  1  2  2  0
  2  3  1  0
  4  3  1  1
  4  5  1  0
  5  6  1  6
  6  7  1  0
  7  8  2  0
  8  9  1  0
  9 10  2  0
 10 11  1  0
 11 12  2  0
 12 13  1  0
 13 14  2  0
 14 15  1  0
 15 16  1  0
 15 17  2  0
 17 18  1  0
 18 19  1  0
 18 20  2  0
 10 21  1  0
 21 22  2  0
  5 23  1  0
 23 24  1  0
 24 25  1  6
 25 26  1  0
 24 27  1  0
 27 28  1  1
 27 29  1  0
 29 30  1  6
  2 31  1  0
 31 32  2  0
 32 33  1  0
 33 34  1  0
 33 35  2  0
 35 36  1  0
 35 37  1  0
 37 38  1  0
 37 39  2  0
 29  4  1  0
 39 31  1  0
 22  7  1  0
 20 13  1  0
M  END
>  <zinc_id>  (1) 
ZINC000230097101

>  <smiles>  (1) 
O=C(O[C@@H]1[C@@H](O)[C@@H](O)[C@@H](CO)O[C@@H]1Oc1ccc(/C=C\c2cc(O)cc(O)c2)cc1)c1cc(O)c(O)c(O)c1

$$$$
