
     RDKit          3D

 25 26  0  0  0  0  0  0  0  0999 V2000
    7.8240    1.3279    1.6196 O   0  0  0  0  0  0  0  0  0  0  0  0
    7.3307    0.8007    0.5971 C   0  0  0  0  0  0  0  0  0  0  0  0
    8.1646    0.4466   -0.4405 O   0  0  0  0  0  0  0  0  0  0  0  0
    5.8645    0.5299    0.5619 C   0  0  0  0  0  0  0  0  0  0  0  0
    5.6988   -0.9523    0.8704 C   0  0  0  0  0  0  0  0  0  0  0  0
    4.2077   -1.2033    1.0401 C   0  0  0  0  0  0  0  0  0  0  0  0
    3.5886   -1.5098   -0.3175 C   0  0  0  0  0  0  0  0  0  0  0  0
    3.7536   -0.2866   -1.2093 C   0  0  0  0  0  0  0  0  0  0  0  0
    2.9113    0.7093   -0.6608 O   0  0  0  0  0  0  0  0  0  0  0  0
    1.6450    0.3353   -0.2298 C   0  0  0  0  0  0  0  0  0  0  0  0
    1.3408    0.4529    1.1200 C   0  0  0  0  0  0  0  0  0  0  0  0
    0.1571   -0.1209    1.5681 C   0  0  0  0  0  0  0  0  0  0  0  0
   -0.8959   -0.4046    0.7065 C   0  0  0  0  0  0  0  0  0  0  0  0
   -2.2651    0.0063    1.0428 C   0  0  0  0  0  0  0  0  0  0  0  0
   -3.2350   -0.8376    1.3007 C   0  0  0  0  0  0  0  0  0  0  0  0
   -4.5873   -0.4216    0.9023 C   0  0  0  0  0  0  0  0  0  0  0  0
   -4.9402    0.9225    0.8788 C   0  0  0  0  0  0  0  0  0  0  0  0
   -6.0164    1.3879    0.1331 C   0  0  0  0  0  0  0  0  0  0  0  0
   -6.0145    2.7656   -0.1078 O   0  0  0  0  0  0  0  0  0  0  0  0
   -6.3892    0.5981   -0.9476 C   0  0  0  0  0  0  0  0  0  0  0  0
   -6.1061   -0.7555   -0.9489 C   0  0  0  0  0  0  0  0  0  0  0  0
   -6.8384   -1.5563   -1.7946 O   0  0  0  0  0  0  0  0  0  0  0  0
   -5.4040   -1.2518    0.1433 C   0  0  0  0  0  0  0  0  0  0  0  0
   -0.5195   -0.6960   -0.5990 C   0  0  0  0  0  0  0  0  0  0  0  0
    0.7248   -0.2865   -1.0610 C   0  0  0  0  0  0  0  0  0  0  0  0
  1  2  2  0
  2  3  1  0
  2  4  1  0
  4  5  1  0
  5  6  1  0
  6  7  1  0
  7  8  1  0
  8  9  1  0
  9 10  1  0
 10 11  2  0
 11 12  1  0
 12 13  2  0
 13 14  1  0
 14 15  2  0
 15 16  1  0
 16 17  2  0
 17 18  1  0
 18 19  1  0
 18 20  2  0
 20 21  1  0
 21 22  1  0
 21 23  2  0
 13 24  1  0
 24 25  2  0
 25 10  1  0
 23 16  1  0
M  END
>  <zinc_id>  (1) 
ZINC000040977346

>  <smiles>  (1) 
O=C(O)CCCCCOc1ccc(/C=C/c2cc(O)cc(O)c2)cc1

$$$$
