
     RDKit          3D

 39 42  0  0  0  0  0  0  0  0999 V2000
   -2.7412   -0.4476    1.7209 O   0  0  0  0  0  0  0  0  0  0  0  0
   -3.1867   -0.3827    1.2434 C   0  0  0  0  0  0  0  0  0  0  0  0
   -2.9203    0.2535    0.0316 O   0  0  0  0  0  0  0  0  0  0  0  0
   -1.4772    0.5226   -0.3205 C   0  0  2  0  0  0  0  0  0  0  0  0
   -1.1260    1.1058    1.2657 C   0  0  1  0  0  0  0  0  0  0  0  0
    0.0137    0.0800    1.4488 O   0  0  0  0  0  0  0  0  0  0  0  0
    0.9155   -0.1153    0.4387 C   0  0  0  0  0  0  0  0  0  0  0  0
    2.2482    0.1114    0.7742 C   0  0  0  0  0  0  0  0  0  0  0  0
    3.3045   -0.4301    0.1044 C   0  0  0  0  0  0  0  0  0  0  0  0
    3.0517   -1.3639   -0.8916 C   0  0  0  0  0  0  0  0  0  0  0  0
    3.8845   -1.4719   -2.0965 C   0  0  0  0  0  0  0  0  0  0  0  0
    4.9326   -0.6640   -2.2124 C   0  0  0  0  0  0  0  0  0  0  0  0
    5.7054   -0.4558   -0.9809 C   0  0  0  0  0  0  0  0  0  0  0  0
    6.3810   -1.5625   -0.4884 C   0  0  0  0  0  0  0  0  0  0  0  0
    7.5608   -1.4573    0.2298 C   0  0  0  0  0  0  0  0  0  0  0  0
    8.3470   -2.5810    0.5044 O   0  0  0  0  0  0  0  0  0  0  0  0
    8.1914   -0.2214    0.3032 C   0  0  0  0  0  0  0  0  0  0  0  0
    7.5380    0.9092   -0.1681 C   0  0  0  0  0  0  0  0  0  0  0  0
    8.3189    2.0638   -0.2793 O   0  0  0  0  0  0  0  0  0  0  0  0
    6.3116    0.7764   -0.7802 C   0  0  0  0  0  0  0  0  0  0  0  0
    1.7970   -1.9363   -0.9386 C   0  0  0  0  0  0  0  0  0  0  0  0
    0.7571   -1.2930   -0.2874 C   0  0  0  0  0  0  0  0  0  0  0  0
   -0.1753    2.1870    0.7723 O   0  0  0  0  0  0  0  0  0  0  0  0
   -1.0252    3.4177    1.0140 C   0  0  1  0  0  0  0  0  0  0  0  0
   -0.5438    4.0996   -0.3971 C   0  0  0  0  0  0  0  0  0  0  0  0
   -1.0831    5.3518   -0.4195 O   0  0  0  0  0  0  0  0  0  0  0  0
   -2.4639    2.6890    0.4083 C   0  0  1  0  0  0  0  0  0  0  0  0
   -2.9370    3.9245   -0.2883 O   0  0  0  0  0  0  0  0  0  0  0  0
   -1.7262    2.0750   -0.9977 C   0  0  2  0  0  0  0  0  0  0  0  0
   -3.0509    1.7928   -1.6436 O   0  0  0  0  0  0  0  0  0  0  0  0
   -4.5556   -0.9215    1.3316 C   0  0  0  0  0  0  0  0  0  0  0  0
   -4.6457   -2.3079    1.3663 C   0  0  0  0  0  0  0  0  0  0  0  0
   -5.6945   -2.9680    0.8407 C   0  0  0  0  0  0  0  0  0  0  0  0
   -5.9326   -4.3020    1.1322 O   0  0  0  0  0  0  0  0  0  0  0  0
   -6.6842   -2.2591    0.1539 C   0  0  0  0  0  0  0  0  0  0  0  0
   -7.3092   -2.8802   -0.8862 O   0  0  0  0  0  0  0  0  0  0  0  0
   -6.7798   -0.8855    0.3543 C   0  0  0  0  0  0  0  0  0  0  0  0
   -7.5621   -0.1946   -0.5759 O   0  0  0  0  0  0  0  0  0  0  0  0
   -5.6382   -0.2582    0.8413 C   0  0  0  0  0  0  0  0  0  0  0  0
  1  2  2  0
  2  3  1  0
  4  3  1  1
  4  5  1  0
  5  6  1  1
  6  7  1  0
  7  8  2  0
  8  9  1  0
  9 10  2  0
 10 11  1  0
 11 12  2  0
 12 13  1  0
 13 14  2  0
 14 15  1  0
 15 16  1  0
 15 17  2  0
 17 18  1  0
 18 19  1  0
 18 20  2  0
 10 21  1  0
 21 22  2  0
  5 23  1  0
 23 24  1  0
 24 25  1  6
 25 26  1  0
 24 27  1  0
 27 28  1  6
 27 29  1  0
 29 30  1  6
  2 31  1  0
 31 32  2  0
 32 33  1  0
 33 34  1  0
 33 35  2  0
 35 36  1  0
 35 37  1  0
 37 38  1  0
 37 39  2  0
 29  4  1  0
 39 31  1  0
 22  7  1  0
 20 13  1  0
M  END
>  <zinc_id>  (1) 
ZINC000100827962

>  <smiles>  (1) 
O=C(O[C@H]1[C@@H](O)[C@H](O)[C@H](CO)O[C@@H]1Oc1ccc(/C=C\c2cc(O)cc(O)c2)cc1)c1cc(O)c(O)c(O)c1

$$$$
