
     RDKit          3D

 39 42  0  0  0  0  0  0  0  0999 V2000
   -5.2553   -1.9035   -1.2457 O   0  0  0  0  0  0  0  0  0  0  0  0
   -5.0519   -0.9696   -1.2634 C   0  0  0  0  0  0  0  0  0  0  0  0
   -3.8356   -0.5291   -1.8053 O   0  0  0  0  0  0  0  0  0  0  0  0
   -2.8001   -1.4760   -1.8110 C   0  0  0  0  0  0  0  0  0  0  0  0
   -2.1315   -1.3505   -0.2759 C   0  0  1  0  0  0  0  0  0  0  0  0
   -0.7540   -1.7546   -0.7743 O   0  0  0  0  0  0  0  0  0  0  0  0
   -0.3530   -1.3233    0.6617 C   0  0  1  0  0  0  0  0  0  0  0  0
    0.8337   -2.3469    0.6833 O   0  0  0  0  0  0  0  0  0  0  0  0
    2.0428   -2.1929    1.0851 C   0  0  0  0  0  0  0  0  0  0  0  0
    2.7493   -3.3525    0.7114 C   0  0  0  0  0  0  0  0  0  0  0  0
    4.0432   -3.2767    0.2014 C   0  0  0  0  0  0  0  0  0  0  0  0
    4.7466   -2.0754    0.2387 C   0  0  0  0  0  0  0  0  0  0  0  0
    5.3715   -1.7222   -1.0440 C   0  0  0  0  0  0  0  0  0  0  0  0
    5.1631   -0.5174   -1.5855 C   0  0  0  0  0  0  0  0  0  0  0  0
    5.5443    0.5336   -0.6254 C   0  0  0  0  0  0  0  0  0  0  0  0
    6.8666    0.4159   -0.2075 C   0  0  0  0  0  0  0  0  0  0  0  0
    7.5248    1.3524    0.5279 C   0  0  0  0  0  0  0  0  0  0  0  0
    8.8392    1.0560    0.8970 O   0  0  0  0  0  0  0  0  0  0  0  0
    7.0560    2.6542    0.4176 C   0  0  0  0  0  0  0  0  0  0  0  0
    5.8305    2.8887   -0.1952 C   0  0  0  0  0  0  0  0  0  0  0  0
    5.4641    4.1815   -0.5204 O   0  0  0  0  0  0  0  0  0  0  0  0
    5.1059    1.8481   -0.7607 C   0  0  0  0  0  0  0  0  0  0  0  0
    4.2225   -1.1797    1.1544 C   0  0  0  0  0  0  0  0  0  0  0  0
    2.9027   -1.2846    1.6092 C   0  0  0  0  0  0  0  0  0  0  0  0
    0.6144    0.0018    0.0481 C   0  0  1  0  0  0  0  0  0  0  0  0
    1.3801   -0.8347   -0.9602 O   0  0  0  0  0  0  0  0  0  0  0  0
   -0.4609    0.6387   -1.1523 C   0  0  1  0  0  0  0  0  0  0  0  0
   -0.5244   -0.5354   -2.1184 O   0  0  0  0  0  0  0  0  0  0  0  0
   -2.0033    0.3860   -0.3984 C   0  0  2  0  0  0  0  0  0  0  0  0
   -1.5073    0.6043    1.0272 O   0  0  0  0  0  0  0  0  0  0  0  0
   -5.8864    0.0259   -0.5794 C   0  0  0  0  0  0  0  0  0  0  0  0
   -5.8937    1.3464   -1.0163 C   0  0  0  0  0  0  0  0  0  0  0  0
   -6.6867    2.2203   -0.2767 C   0  0  0  0  0  0  0  0  0  0  0  0
   -7.0415    3.4296   -0.8221 O   0  0  0  0  0  0  0  0  0  0  0  0
   -7.3802    1.7960    0.8473 C   0  0  0  0  0  0  0  0  0  0  0  0
   -8.6294    2.3065    1.2128 O   0  0  0  0  0  0  0  0  0  0  0  0
   -6.8432    0.6975    1.4986 C   0  0  0  0  0  0  0  0  0  0  0  0
   -7.3199    0.3428    2.7484 O   0  0  0  0  0  0  0  0  0  0  0  0
   -5.9429   -0.1012    0.8033 C   0  0  0  0  0  0  0  0  0  0  0  0
  1  2  2  0
  2  3  1  0
  3  4  1  0
  5  4  1  6
  5  6  1  0
  6  7  1  0
  7  8  1  6
  8  9  1  0
  9 10  2  0
 10 11  1  0
 11 12  2  0
 12 13  1  0
 13 14  2  0
 14 15  1  0
 15 16  2  0
 16 17  1  0
 17 18  1  0
 17 19  2  0
 19 20  1  0
 20 21  1  0
 20 22  2  0
 12 23  1  0
 23 24  2  0
  7 25  1  0
 25 26  1  6
 25 27  1  0
 27 28  1  6
 27 29  1  0
 29 30  1  1
  2 31  1  0
 31 32  2  0
 32 33  1  0
 33 34  1  0
 33 35  2  0
 35 36  1  0
 35 37  1  0
 37 38  1  0
 37 39  2  0
 29  5  1  0
 39 31  1  0
 24  9  1  0
 22 15  1  0
M  END
>  <zinc_id>  (1) 
ZINC000230079516

>  <smiles>  (1) 
O=C(OC[C@H]1O[C@@H](Oc2ccc(/C=C\c3cc(O)cc(O)c3)cc2)[C@@H](O)[C@@H](O)[C@@H]1O)c1cc(O)c(O)c(O)c1

$$$$
