
     RDKit          3D

 39 42  0  0  0  0  0  0  0  0999 V2000
   -4.5592   -0.7769   -2.5822 O   0  0  0  0  0  0  0  0  0  0  0  0
   -4.5677   -0.0174   -1.6199 C   0  0  0  0  0  0  0  0  0  0  0  0
   -3.3260    0.2747   -1.0708 O   0  0  0  0  0  0  0  0  0  0  0  0
   -2.3166   -0.6934   -0.9097 C   0  0  0  0  0  0  0  0  0  0  0  0
   -2.7845   -1.3234    0.5628 C   0  0  2  0  0  0  0  0  0  0  0  0
   -1.4726   -1.1775    1.3158 O   0  0  0  0  0  0  0  0  0  0  0  0
   -0.4345   -0.6099    0.3361 C   0  0  1  0  0  0  0  0  0  0  0  0
    0.6872   -1.1777    1.2895 O   0  0  0  0  0  0  0  0  0  0  0  0
    1.9277   -0.6870    1.1558 C   0  0  0  0  0  0  0  0  0  0  0  0
    2.9198   -1.4680    1.7462 C   0  0  0  0  0  0  0  0  0  0  0  0
    4.1935   -1.5798    1.1882 C   0  0  0  0  0  0  0  0  0  0  0  0
    4.4974   -0.8016    0.0782 C   0  0  0  0  0  0  0  0  0  0  0  0
    5.2438   -1.3676   -1.0557 C   0  0  0  0  0  0  0  0  0  0  0  0
    5.7307   -0.4475   -1.8906 C   0  0  0  0  0  0  0  0  0  0  0  0
    6.4239    0.6588   -1.2120 C   0  0  0  0  0  0  0  0  0  0  0  0
    7.2759    0.3542   -0.1674 C   0  0  0  0  0  0  0  0  0  0  0  0
    7.8312    1.3773    0.5980 C   0  0  0  0  0  0  0  0  0  0  0  0
    9.1047    1.1100    1.1091 O   0  0  0  0  0  0  0  0  0  0  0  0
    7.3632    2.6523    0.4034 C   0  0  0  0  0  0  0  0  0  0  0  0
    6.5331    2.9527   -0.6559 C   0  0  0  0  0  0  0  0  0  0  0  0
    5.8539    4.1783   -0.6192 O   0  0  0  0  0  0  0  0  0  0  0  0
    6.2200    1.9759   -1.5733 C   0  0  0  0  0  0  0  0  0  0  0  0
    3.6659    0.2967   -0.1090 C   0  0  0  0  0  0  0  0  0  0  0  0
    2.4007    0.3762    0.4641 C   0  0  0  0  0  0  0  0  0  0  0  0
   -0.4109   -2.0387   -0.7078 C   0  0  1  0  0  0  0  0  0  0  0  0
    1.0544   -2.3161   -0.5742 O   0  0  0  0  0  0  0  0  0  0  0  0
   -0.8690   -3.0605    0.5985 C   0  0  2  0  0  0  0  0  0  0  0  0
   -0.6689   -4.2847   -0.2621 O   0  0  0  0  0  0  0  0  0  0  0  0
   -2.5542   -3.0273    0.1901 C   0  0  2  0  0  0  0  0  0  0  0  0
   -2.3761   -2.8873   -1.2976 O   0  0  0  0  0  0  0  0  0  0  0  0
   -5.8341    0.5157   -1.1005 C   0  0  0  0  0  0  0  0  0  0  0  0
   -5.9209    1.8829   -1.0619 C   0  0  0  0  0  0  0  0  0  0  0  0
   -6.8815    2.5261   -0.3314 C   0  0  0  0  0  0  0  0  0  0  0  0
   -7.1280    3.8520   -0.5922 O   0  0  0  0  0  0  0  0  0  0  0  0
   -7.4044    1.8942    0.7671 C   0  0  0  0  0  0  0  0  0  0  0  0
   -8.5708    2.4238    1.3293 O   0  0  0  0  0  0  0  0  0  0  0  0
   -6.9980    0.5889    1.0160 C   0  0  0  0  0  0  0  0  0  0  0  0
   -7.5147   -0.0240    2.1506 O   0  0  0  0  0  0  0  0  0  0  0  0
   -6.3344   -0.1247    0.0297 C   0  0  0  0  0  0  0  0  0  0  0  0
  1  2  2  0
  2  3  1  0
  3  4  1  0
  5  4  1  6
  5  6  1  0
  6  7  1  0
  7  8  1  1
  8  9  1  0
  9 10  2  0
 10 11  1  0
 11 12  2  0
 12 13  1  0
 13 14  2  0
 14 15  1  0
 15 16  2  0
 16 17  1  0
 17 18  1  0
 17 19  2  0
 19 20  1  0
 20 21  1  0
 20 22  2  0
 12 23  1  0
 23 24  2  0
  7 25  1  0
 25 26  1  1
 25 27  1  0
 27 28  1  6
 27 29  1  0
 29 30  1  6
  2 31  1  0
 31 32  2  0
 32 33  1  0
 33 34  1  0
 33 35  2  0
 35 36  1  0
 35 37  1  0
 37 38  1  0
 37 39  2  0
 29  5  1  0
 39 31  1  0
 24  9  1  0
 22 15  1  0
M  END
>  <zinc_id>  (1) 
ZINC000085612047

>  <smiles>  (1) 
O=C(OC[C@@H]1O[C@@H](Oc2ccc(/C=C\c3cc(O)cc(O)c3)cc2)[C@@H](O)[C@H](O)[C@@H]1O)c1cc(O)c(O)c(O)c1

$$$$
