
     RDKit          3D

 18 19  0  0  0  0  0  0  0  0999 V2000
    4.4856    1.9258    0.2899 C   0  0  0  0  0  0  0  0  0  0  0  0
    4.9103    0.5896    0.1425 O   0  0  0  0  0  0  0  0  0  0  0  0
    4.0252   -0.4894    0.2098 C   0  0  0  0  0  0  0  0  0  0  0  0
    3.8055   -1.3516   -0.8355 C   0  0  0  0  0  0  0  0  0  0  0  0
    2.5241   -1.7725   -1.1623 C   0  0  0  0  0  0  0  0  0  0  0  0
    1.4771   -1.5838   -0.2711 C   0  0  0  0  0  0  0  0  0  0  0  0
    0.1401   -1.3709   -0.8414 C   0  0  0  0  0  0  0  0  0  0  0  0
   -0.9617   -1.3774   -0.1330 C   0  0  0  0  0  0  0  0  0  0  0  0
   -2.0732   -0.4390   -0.3381 C   0  0  0  0  0  0  0  0  0  0  0  0
   -1.8446    0.8867   -0.6882 C   0  0  0  0  0  0  0  0  0  0  0  0
   -2.6068    1.9293   -0.2361 C   0  0  0  0  0  0  0  0  0  0  0  0
   -2.1671    3.2345   -0.3613 O   0  0  0  0  0  0  0  0  0  0  0  0
   -3.8540    1.6431    0.3061 C   0  0  0  0  0  0  0  0  0  0  0  0
   -4.1267    0.3456    0.6439 C   0  0  0  0  0  0  0  0  0  0  0  0
   -5.4460    0.0245    0.9647 O   0  0  0  0  0  0  0  0  0  0  0  0
   -3.1665   -0.6475    0.4959 C   0  0  0  0  0  0  0  0  0  0  0  0
    1.8290   -1.0872    0.9778 C   0  0  0  0  0  0  0  0  0  0  0  0
    3.0496   -0.4598    1.1965 C   0  0  0  0  0  0  0  0  0  0  0  0
  1  2  1  0
  2  3  1  0
  3  4  2  0
  4  5  1  0
  5  6  2  0
  6  7  1  0
  7  8  2  0
  8  9  1  0
  9 10  2  0
 10 11  1  0
 11 12  1  0
 11 13  2  0
 13 14  1  0
 14 15  1  0
 14 16  2  0
  6 17  1  0
 17 18  2  0
 18  3  1  0
 16  9  1  0
M  END
>  <zinc_id>  (1) 
ZINC000003978779

>  <smiles>  (1) 
COc1ccc(/C=C/c2cc(O)cc(O)c2)cc1

$$$$
