REMARK  Name = 
REMARK  5 active torsions:
REMARK  status: ('A' for Active; 'I' for Inactive)
REMARK    1  A    between atoms: C_2  and  C_3
REMARK    2  A    between atoms: C_5  and  O_6
REMARK    3  A    between atoms: O_6  and  C_7
REMARK    4  A    between atoms: C_10  and  C_11
REMARK    5  A    between atoms: C_12  and  C_13
REMARK                            x       y       z     vdW  Elec       q    Type
REMARK                         _______ _______ _______ _____ _____    ______ ____
ROOT
ATOM      7  C   UNL     1      -1.238   0.144  -0.417  0.00  0.00    +0.000 A 
ATOM      8  C   UNL     1      -0.724  -0.042  -1.700  0.00  0.00    +0.000 A 
ATOM      9  C   UNL     1       0.545   0.321  -2.020  0.00  0.00    +0.000 A 
ATOM     10  C   UNL     1       1.495   0.232  -1.002  0.00  0.00    +0.000 A 
ATOM     21  C   UNL     1       0.985   0.523   0.250  0.00  0.00    +0.000 A 
ATOM     22  C   UNL     1      -0.388   0.704   0.440  0.00  0.00    +0.000 A 
ENDROOT
BRANCH  10  11
ATOM     11  C   UNL     1       2.514  -0.701  -1.392  0.00  0.00    +0.000 C 
ATOM     12  C   UNL     1       3.691  -0.100  -1.604  0.00  0.00    +0.000 C 
BRANCH  12  13
ATOM     13  C   UNL     1       4.249  -0.165  -0.238  0.00  0.00    +0.000 A 
ATOM     14  C   UNL     1       4.800  -1.403   0.097  0.00  0.00    +0.000 A 
ATOM     15  C   UNL     1       6.021  -1.524   0.747  0.00  0.00    +0.000 A 
ATOM     16  O   UNL     1       6.822  -2.669   0.642  0.00  0.00    +0.000 OA
ATOM     17  C   UNL     1       6.644  -0.343   1.139  0.00  0.00    +0.000 A 
ATOM     18  C   UNL     1       5.927   0.844   1.068  0.00  0.00    +0.000 A 
ATOM     19  O   UNL     1       6.621   2.015   1.348  0.00  0.00    +0.000 OA
ATOM     20  C   UNL     1       4.743   0.946   0.398  0.00  0.00    +0.000 A 
ENDBRANCH  12  13
ENDBRANCH  10  11
BRANCH   7   6
ATOM      6  O   UNL     1      -2.584  -0.034  -0.415  0.00  0.00    +0.000 OA
BRANCH   6   5
ATOM      3  C   UNL     1      -5.366   0.703   0.312  0.00  0.00    +0.000 C 
ATOM      4  O   UNL     1      -4.098   1.468   0.383  0.00  0.00    +0.000 OA
ATOM      5  C   UNL     1      -3.319   1.228  -0.892  0.00  0.00    +0.000 C 
ATOM     23  C   UNL     1      -4.567   0.533  -1.833  0.00  0.00    +0.000 C 
ATOM     24  O   UNL     1      -3.585   0.110  -2.903  0.00  0.00    +0.000 OA
ATOM     25  C   UNL     1      -4.818  -1.035  -1.236  0.00  0.00    +0.000 C 
ATOM     26  O   UNL     1      -3.501  -1.682  -1.532  0.00  0.00    +0.000 OA
ATOM     27  C   UNL     1      -4.475  -0.752   0.403  0.00  0.00    +0.000 C 
ATOM     28  O   UNL     1      -5.644  -1.560   0.868  0.00  0.00    +0.000 OA
BRANCH   3   2
ATOM      1  O   UNL     1      -5.211   1.601   2.528  0.00  0.00    +0.000 OA
ATOM      2  C   UNL     1      -5.538   0.640   1.942  0.00  0.00    +0.000 C 
ENDBRANCH   3   2
ENDBRANCH   6   5
ENDBRANCH   7   6
TORSDOF 5
