
     RDKit          3D

 39 42  0  0  0  0  0  0  0  0999 V2000
   -3.0958   -0.0271    0.9835 O   0  0  0  0  0  0  0  0  0  0  0  0
   -3.0795    0.0492    0.4432 C   0  0  0  0  0  0  0  0  0  0  0  0
   -2.5520   -1.0907   -0.2075 O   0  0  0  0  0  0  0  0  0  0  0  0
   -2.5162   -2.1819    0.8480 C   0  0  2  0  0  0  0  0  0  0  0  0
   -0.9811   -2.7530    0.3166 C   0  0  1  0  0  0  0  0  0  0  0  0
   -0.2932   -2.2519    1.6113 O   0  0  0  0  0  0  0  0  0  0  0  0
    0.7533   -1.4005    1.2322 C   0  0  0  0  0  0  0  0  0  0  0  0
    0.5890   -0.6121    0.0975 C   0  0  0  0  0  0  0  0  0  0  0  0
    1.6436    0.0926   -0.4707 C   0  0  0  0  0  0  0  0  0  0  0  0
    2.7550    0.3886    0.3162 C   0  0  0  0  0  0  0  0  0  0  0  0
    2.9775    1.8481    0.3991 C   0  0  0  0  0  0  0  0  0  0  0  0
    3.9279    2.1264    1.2606 C   0  0  0  0  0  0  0  0  0  0  0  0
    5.2324    1.8188    0.7011 C   0  0  0  0  0  0  0  0  0  0  0  0
    6.0327    2.9579    0.6148 C   0  0  0  0  0  0  0  0  0  0  0  0
    7.0522    3.0758   -0.3012 C   0  0  0  0  0  0  0  0  0  0  0  0
    7.6606    4.2929   -0.6223 O   0  0  0  0  0  0  0  0  0  0  0  0
    7.5172    1.8718   -0.8119 C   0  0  0  0  0  0  0  0  0  0  0  0
    6.8752    0.6724   -0.5256 C   0  0  0  0  0  0  0  0  0  0  0  0
    7.5011   -0.5220   -0.7315 O   0  0  0  0  0  0  0  0  0  0  0  0
    5.5600    0.7630   -0.0875 C   0  0  0  0  0  0  0  0  0  0  0  0
    2.8987   -0.4381    1.4171 C   0  0  0  0  0  0  0  0  0  0  0  0
    2.0411   -1.5024    1.6763 C   0  0  0  0  0  0  0  0  0  0  0  0
   -1.2754   -4.1251    0.8989 O   0  0  0  0  0  0  0  0  0  0  0  0
   -1.5579   -4.8989   -0.3713 C   0  0  2  0  0  0  0  0  0  0  0  0
   -0.0784   -4.5556   -0.9883 C   0  0  0  0  0  0  0  0  0  0  0  0
    0.7426   -5.1325   -0.0069 O   0  0  0  0  0  0  0  0  0  0  0  0
   -2.2464   -3.5781   -1.2257 C   0  0  1  0  0  0  0  0  0  0  0  0
   -3.1438   -4.4902   -1.9951 O   0  0  0  0  0  0  0  0  0  0  0  0
   -3.4054   -3.3732    0.0035 C   0  0  2  0  0  0  0  0  0  0  0  0
   -4.2328   -2.4516   -0.8444 O   0  0  0  0  0  0  0  0  0  0  0  0
   -3.9942    0.9739   -0.2477 C   0  0  0  0  0  0  0  0  0  0  0  0
   -3.4205    1.9087   -1.1251 C   0  0  0  0  0  0  0  0  0  0  0  0
   -4.1594    3.0372   -1.4677 C   0  0  0  0  0  0  0  0  0  0  0  0
   -3.7121    3.8859   -2.4761 O   0  0  0  0  0  0  0  0  0  0  0  0
   -5.2325    3.4558   -0.6989 C   0  0  0  0  0  0  0  0  0  0  0  0
   -5.8223    4.7006   -0.8118 O   0  0  0  0  0  0  0  0  0  0  0  0
   -5.6091    2.6932    0.4014 C   0  0  0  0  0  0  0  0  0  0  0  0
   -6.5038    3.1800    1.3627 O   0  0  0  0  0  0  0  0  0  0  0  0
   -4.8481    1.5920    0.6669 C   0  0  0  0  0  0  0  0  0  0  0  0
  1  2  2  0
  2  3  1  0
  4  3  1  6
  4  5  1  0
  5  6  1  1
  6  7  1  0
  7  8  2  0
  8  9  1  0
  9 10  2  0
 10 11  1  0
 11 12  2  0
 12 13  1  0
 13 14  2  0
 14 15  1  0
 15 16  1  0
 15 17  2  0
 17 18  1  0
 18 19  1  0
 18 20  2  0
 10 21  1  0
 21 22  2  0
  5 23  1  0
 23 24  1  0
 24 25  1  6
 25 26  1  0
 24 27  1  0
 27 28  1  6
 27 29  1  0
 29 30  1  6
  2 31  1  0
 31 32  2  0
 32 33  1  0
 33 34  1  0
 33 35  2  0
 35 36  1  0
 35 37  1  0
 37 38  1  0
 37 39  2  0
 29  4  1  0
 39 31  1  0
 22  7  1  0
 20 13  1  0
M  END
>  <zinc_id>  (1) 
ZINC000100827965

>  <smiles>  (1) 
O=C(O[C@H]1[C@@H](O)[C@H](O)[C@@H](CO)O[C@@H]1Oc1ccc(/C=C\c2cc(O)cc(O)c2)cc1)c1cc(O)c(O)c(O)c1

$$$$
