
     RDKit          3D

 28 30  0  0  0  0  0  0  0  0999 V2000
   -4.7123    2.3763    0.7369 O   0  0  0  0  0  0  0  0  0  0  0  0
   -4.5967    1.8942    0.5260 C   0  0  0  0  0  0  0  0  0  0  0  0
   -3.5394    0.8932    1.3397 C   0  0  2  0  0  0  0  0  0  0  0  0
   -3.0130    0.2841    0.0293 O   0  0  0  0  0  0  0  0  0  0  0  0
   -2.8919   -1.1801    0.5485 C   0  0  2  0  0  0  0  0  0  0  0  0
   -1.8082   -1.5389   -0.5462 O   0  0  0  0  0  0  0  0  0  0  0  0
   -0.6281   -0.8254   -0.3693 C   0  0  0  0  0  0  0  0  0  0  0  0
    0.3535   -1.1615    0.5537 C   0  0  0  0  0  0  0  0  0  0  0  0
    1.3888   -0.2695    0.8286 C   0  0  0  0  0  0  0  0  0  0  0  0
    1.3117    1.0144    0.4015 C   0  0  0  0  0  0  0  0  0  0  0  0
    2.3633    1.9957    0.3006 C   0  0  0  0  0  0  0  0  0  0  0  0
    3.1165    1.7466   -0.7840 C   0  0  0  0  0  0  0  0  0  0  0  0
    4.0717    0.7003   -0.3821 C   0  0  0  0  0  0  0  0  0  0  0  0
    4.1441   -0.5381   -0.9519 C   0  0  0  0  0  0  0  0  0  0  0  0
    5.2203   -1.3332   -0.5739 C   0  0  0  0  0  0  0  0  0  0  0  0
    5.1589   -2.7258   -0.6081 O   0  0  0  0  0  0  0  0  0  0  0  0
    6.3773   -0.7386   -0.1422 C   0  0  0  0  0  0  0  0  0  0  0  0
    6.4622    0.6226    0.1056 C   0  0  0  0  0  0  0  0  0  0  0  0
    7.6794    1.3110    0.0501 O   0  0  0  0  0  0  0  0  0  0  0  0
    5.2379    1.2777    0.1105 C   0  0  0  0  0  0  0  0  0  0  0  0
    0.1082    1.4030   -0.1837 C   0  0  0  0  0  0  0  0  0  0  0  0
   -0.6617    0.4717   -0.8630 C   0  0  0  0  0  0  0  0  0  0  0  0
   -4.2186   -1.7236   -0.4799 C   0  0  1  0  0  0  0  0  0  0  0  0
   -4.7256   -2.6091    0.6280 O   0  0  0  0  0  0  0  0  0  0  0  0
   -5.2030   -0.3506   -0.0833 C   0  0  1  0  0  0  0  0  0  0  0  0
   -6.4542   -1.1477    0.2266 O   0  0  0  0  0  0  0  0  0  0  0  0
   -4.7120   -0.3885    1.5767 C   0  0  2  0  0  0  0  0  0  0  0  0
   -5.8289    0.5397    1.9829 O   0  0  0  0  0  0  0  0  0  0  0  0
  1  2  1  0
  3  2  1  6
  3  4  1  0
  4  5  1  0
  5  6  1  6
  6  7  1  0
  7  8  2  0
  8  9  1  0
  9 10  2  0
 10 11  1  0
 11 12  2  0
 12 13  1  0
 13 14  2  0
 14 15  1  0
 15 16  1  0
 15 17  2  0
 17 18  1  0
 18 19  1  0
 18 20  2  0
 10 21  1  0
 21 22  2  0
  5 23  1  0
 23 24  1  1
 23 25  1  0
 25 26  1  1
 25 27  1  0
 27 28  1  1
 27  3  1  0
 22  7  1  0
 20 13  1  0
M  END
>  <zinc_id>  (1) 
ZINC000015112538

>  <smiles>  (1) 
OC[C@@H]1O[C@H](Oc2ccc(/C=C\c3cc(O)cc(O)c3)cc2)[C@@H](O)[C@@H](O)[C@@H]1O

$$$$
