
     RDKit          3D

 39 42  0  0  0  0  0  0  0  0999 V2000
   -3.8684    1.5694   -1.9162 O   0  0  0  0  0  0  0  0  0  0  0  0
   -4.0000    1.3741   -1.8799 C   0  0  0  0  0  0  0  0  0  0  0  0
   -2.8688    0.7089   -1.5360 O   0  0  0  0  0  0  0  0  0  0  0  0
   -2.5718    0.4851   -0.0584 C   0  0  1  0  0  0  0  0  0  0  0  0
   -2.6913   -1.2014   -0.2209 C   0  0  1  0  0  0  0  0  0  0  0  0
   -1.9047   -1.4066   -1.4804 O   0  0  0  0  0  0  0  0  0  0  0  0
   -1.4833   -1.6095    0.9068 C   0  0  2  0  0  0  0  0  0  0  0  0
   -2.4665   -2.4214    1.6889 O   0  0  0  0  0  0  0  0  0  0  0  0
   -1.8252   -0.2045    1.8211 C   0  0  1  0  0  0  0  0  0  0  0  0
   -1.0601   -0.8297    3.1312 C   0  0  0  0  0  0  0  0  0  0  0  0
   -2.1647   -0.8600    4.0019 O   0  0  0  0  0  0  0  0  0  0  0  0
   -0.5713    0.4314    1.3104 O   0  0  0  0  0  0  0  0  0  0  0  0
   -0.8984    0.8502   -0.1187 C   0  0  1  0  0  0  0  0  0  0  0  0
   -0.3109   -0.4385   -0.6997 O   0  0  0  0  0  0  0  0  0  0  0  0
    1.0532   -0.3441   -0.7328 C   0  0  0  0  0  0  0  0  0  0  0  0
    1.8373    0.4607    0.0810 C   0  0  0  0  0  0  0  0  0  0  0  0
    3.2046    0.5866   -0.1622 C   0  0  0  0  0  0  0  0  0  0  0  0
    3.8795   -0.4573   -0.7286 C   0  0  0  0  0  0  0  0  0  0  0  0
    5.0282   -0.3099   -1.6409 C   0  0  0  0  0  0  0  0  0  0  0  0
    5.9428   -1.1247   -1.0903 C   0  0  0  0  0  0  0  0  0  0  0  0
    6.7487   -0.2801   -0.2360 C   0  0  0  0  0  0  0  0  0  0  0  0
    6.6493   -0.1050    1.1073 C   0  0  0  0  0  0  0  0  0  0  0  0
    7.6426    0.6403    1.7395 C   0  0  0  0  0  0  0  0  0  0  0  0
    7.3718    1.4057    2.8791 O   0  0  0  0  0  0  0  0  0  0  0  0
    8.8180    0.9726    1.0735 C   0  0  0  0  0  0  0  0  0  0  0  0
    9.0287    0.5729   -0.2125 C   0  0  0  0  0  0  0  0  0  0  0  0
   10.1208    1.0082   -0.9714 O   0  0  0  0  0  0  0  0  0  0  0  0
    8.0470   -0.2169   -0.7541 C   0  0  0  0  0  0  0  0  0  0  0  0
    3.0953   -1.5570   -1.0833 C   0  0  0  0  0  0  0  0  0  0  0  0
    1.7216   -1.4388   -1.2732 C   0  0  0  0  0  0  0  0  0  0  0  0
   -5.4142    1.2318   -1.7088 C   0  0  0  0  0  0  0  0  0  0  0  0
   -6.1463    2.2948   -1.1778 C   0  0  0  0  0  0  0  0  0  0  0  0
   -7.1239    2.0936   -0.2048 C   0  0  0  0  0  0  0  0  0  0  0  0
   -7.7289    3.1404    0.4758 O   0  0  0  0  0  0  0  0  0  0  0  0
   -7.3395    0.8188    0.3129 C   0  0  0  0  0  0  0  0  0  0  0  0
   -7.3557    0.6126    1.6983 O   0  0  0  0  0  0  0  0  0  0  0  0
   -7.0048   -0.2002   -0.5766 C   0  0  0  0  0  0  0  0  0  0  0  0
   -7.2507   -1.5009   -0.1220 O   0  0  0  0  0  0  0  0  0  0  0  0
   -6.1400    0.0484   -1.6419 C   0  0  0  0  0  0  0  0  0  0  0  0
  1  2  2  0
  2  3  1  0
  4  3  1  6
  4  5  1  0
  5  6  1  6
  5  7  1  0
  7  8  1  1
  7  9  1  0
  9 10  1  1
 10 11  1  0
  9 12  1  0
 12 13  1  0
 13 14  1  6
 14 15  1  0
 15 16  2  0
 16 17  1  0
 17 18  2  0
 18 19  1  0
 19 20  2  0
 20 21  1  0
 21 22  2  0
 22 23  1  0
 23 24  1  0
 23 25  2  0
 25 26  1  0
 26 27  1  0
 26 28  2  0
 18 29  1  0
 29 30  2  0
  2 31  1  0
 31 32  2  0
 32 33  1  0
 33 34  1  0
 33 35  2  0
 35 36  1  0
 35 37  1  0
 37 38  1  0
 37 39  2  0
 13  4  1  0
 30 15  1  0
 39 31  1  0
 28 21  1  0
M  END
>  <zinc_id>  (1) 
ZINC000100827960

>  <smiles>  (1) 
O=C(O[C@@H]1[C@H](Oc2ccc(/C=C\c3cc(O)cc(O)c3)cc2)O[C@H](CO)[C@@H](O)[C@@H]1O)c1cc(O)c(O)c(O)c1

$$$$
