
     RDKit          3D

 39 42  0  0  0  0  0  0  0  0999 V2000
   -4.1884   -0.6912   -1.1685 O   0  0  0  0  0  0  0  0  0  0  0  0
   -4.3495   -0.6554   -1.2695 C   0  0  0  0  0  0  0  0  0  0  0  0
   -3.9255    0.6080   -1.4375 O   0  0  0  0  0  0  0  0  0  0  0  0
   -2.7123    0.9985   -0.9036 C   0  0  0  0  0  0  0  0  0  0  0  0
   -1.7884   -0.3416   -0.6843 C   0  0  1  0  0  0  0  0  0  0  0  0
   -0.4177    0.2839   -0.7463 O   0  0  0  0  0  0  0  0  0  0  0  0
   -0.7217    1.7250   -0.3920 C   0  0  2  0  0  0  0  0  0  0  0  0
    0.6240    2.2389   -0.9240 O   0  0  0  0  0  0  0  0  0  0  0  0
    1.7932    1.7459   -0.5577 C   0  0  0  0  0  0  0  0  0  0  0  0
    2.2040    0.5018   -0.1948 C   0  0  0  0  0  0  0  0  0  0  0  0
    3.3097    0.4540    0.6480 C   0  0  0  0  0  0  0  0  0  0  0  0
    4.3135    1.3812    0.4281 C   0  0  0  0  0  0  0  0  0  0  0  0
    5.4591    1.5337    1.3274 C   0  0  0  0  0  0  0  0  0  0  0  0
    6.6302    1.4580    0.6885 C   0  0  0  0  0  0  0  0  0  0  0  0
    6.8545    0.1283    0.1048 C   0  0  0  0  0  0  0  0  0  0  0  0
    7.2520   -0.0750   -1.1872 C   0  0  0  0  0  0  0  0  0  0  0  0
    8.0187   -1.1983   -1.4467 C   0  0  0  0  0  0  0  0  0  0  0  0
    8.6814   -1.3076   -2.6726 O   0  0  0  0  0  0  0  0  0  0  0  0
    8.2594   -2.1402   -0.4704 C   0  0  0  0  0  0  0  0  0  0  0  0
    7.6035   -2.0486    0.7499 C   0  0  0  0  0  0  0  0  0  0  0  0
    7.5255   -3.1812    1.5517 O   0  0  0  0  0  0  0  0  0  0  0  0
    6.7142   -0.9995    0.9040 C   0  0  0  0  0  0  0  0  0  0  0  0
    4.1230    2.3863   -0.5122 C   0  0  0  0  0  0  0  0  0  0  0  0
    2.8522    2.5103   -1.0514 C   0  0  0  0  0  0  0  0  0  0  0  0
   -0.0851    1.2696    1.1405 C   0  0  1  0  0  0  0  0  0  0  0  0
   -0.1740    2.6717    1.6495 O   0  0  0  0  0  0  0  0  0  0  0  0
   -1.6092    0.9119    1.8077 C   0  0  1  0  0  0  0  0  0  0  0  0
   -2.4474    1.8729    1.0178 O   0  0  0  0  0  0  0  0  0  0  0  0
   -1.9675   -0.5463    1.0093 C   0  0  2  0  0  0  0  0  0  0  0  0
   -0.5621   -1.0897    1.1966 O   0  0  0  0  0  0  0  0  0  0  0  0
   -5.6767   -1.1800   -1.0611 C   0  0  0  0  0  0  0  0  0  0  0  0
   -5.9065   -1.8515    0.1339 C   0  0  0  0  0  0  0  0  0  0  0  0
   -7.1892   -1.9052    0.6666 C   0  0  0  0  0  0  0  0  0  0  0  0
   -7.4731   -2.5658    1.8410 O   0  0  0  0  0  0  0  0  0  0  0  0
   -8.1611   -1.0721    0.1252 C   0  0  0  0  0  0  0  0  0  0  0  0
   -9.1123   -0.4470    0.9373 O   0  0  0  0  0  0  0  0  0  0  0  0
   -7.9807   -0.6066   -1.1723 C   0  0  0  0  0  0  0  0  0  0  0  0
   -8.9911    0.1165   -1.8144 O   0  0  0  0  0  0  0  0  0  0  0  0
   -6.7791   -0.8937   -1.8113 C   0  0  0  0  0  0  0  0  0  0  0  0
  1  2  2  0
  2  3  1  0
  3  4  1  0
  5  4  1  1
  5  6  1  0
  6  7  1  0
  7  8  1  6
  8  9  1  0
  9 10  2  0
 10 11  1  0
 11 12  2  0
 12 13  1  0
 13 14  2  0
 14 15  1  0
 15 16  2  0
 16 17  1  0
 17 18  1  0
 17 19  2  0
 19 20  1  0
 20 21  1  0
 20 22  2  0
 12 23  1  0
 23 24  2  0
  7 25  1  0
 25 26  1  1
 25 27  1  0
 27 28  1  6
 27 29  1  0
 29 30  1  1
  2 31  1  0
 31 32  2  0
 32 33  1  0
 33 34  1  0
 33 35  2  0
 35 36  1  0
 35 37  1  0
 37 38  1  0
 37 39  2  0
 29  5  1  0
 39 31  1  0
 24  9  1  0
 22 15  1  0
M  END
>  <zinc_id>  (1) 
ZINC000230079525

>  <smiles>  (1) 
O=C(OC[C@H]1O[C@H](Oc2ccc(/C=C\c3cc(O)cc(O)c3)cc2)[C@@H](O)[C@@H](O)[C@@H]1O)c1cc(O)c(O)c(O)c1

$$$$
