REMARK  Name = 
REMARK  8 active torsions:
REMARK  status: ('A' for Active; 'I' for Inactive)
REMARK    1  A    between atoms: C_2  and  O_3
REMARK    2  A    between atoms: C_2  and  C_31
REMARK    3  A    between atoms: O_3  and  C_4
REMARK    4  A    between atoms: C_4  and  C_5
REMARK    5  A    between atoms: C_7  and  O_8
REMARK    6  A    between atoms: O_8  and  C_9
REMARK    7  A    between atoms: C_12  and  C_13
REMARK    8  A    between atoms: C_14  and  C_15
REMARK                            x       y       z     vdW  Elec       q    Type
REMARK                         _______ _______ _______ _____ _____    ______ ____
ROOT
ATOM      5  C   UNL     1      -1.977  -2.323   0.809  0.00  0.00    +0.000 C 
ATOM      6  O   UNL     1      -0.581  -1.782   0.792  0.00  0.00    +0.000 OA
ATOM      7  C   UNL     1      -0.662  -0.368   0.272  0.00  0.00    +0.000 C 
ATOM     25  C   UNL     1      -1.276  -0.738  -1.312  0.00  0.00    +0.000 C 
ATOM     26  O   UNL     1      -0.153  -0.121  -2.095  0.00  0.00    +0.000 OA
ATOM     27  C   UNL     1      -0.685  -2.312  -1.572  0.00  0.00    +0.000 C 
ATOM     28  O   UNL     1       0.407  -2.448  -0.558  0.00  0.00    +0.000 OA
ATOM     29  C   UNL     1      -1.940  -3.130  -0.722  0.00  0.00    +0.000 C 
ATOM     30  O   UNL     1      -3.055  -2.348  -1.373  0.00  0.00    +0.000 OA
ENDROOT
BRANCH   5   4
ATOM      4  C   UNL     1      -2.759  -0.946   0.373  0.00  0.00    +0.000 C 
BRANCH   4   3
ATOM      3  O   UNL     1      -4.128  -1.151   0.584  0.00  0.00    +0.000 OA
BRANCH   3   2
ATOM      1  O   UNL     1      -4.463   0.103  -0.118  0.00  0.00    +0.000 OA
ATOM      2  C   UNL     1      -4.804  -0.192  -0.024  0.00  0.00    +0.000 C 
BRANCH   2  31
ATOM     31  C   UNL     1      -5.902   0.601  -0.006  0.00  0.00    +0.000 A 
ATOM     32  C   UNL     1      -6.662   0.818  -1.149  0.00  0.00    +0.000 A 
ATOM     33  C   UNL     1      -7.997   1.161  -0.965  0.00  0.00    +0.000 A 
ATOM     34  O   UNL     1      -8.870   1.105  -2.033  0.00  0.00    +0.000 OA
ATOM     35  C   UNL     1      -8.455   1.570   0.284  0.00  0.00    +0.000 A 
ATOM     36  O   UNL     1      -9.796   1.361   0.619  0.00  0.00    +0.000 OA
ATOM     37  C   UNL     1      -7.521   1.732   1.304  0.00  0.00    +0.000 A 
ATOM     38  O   UNL     1      -7.917   2.191   2.563  0.00  0.00    +0.000 OA
ATOM     39  C   UNL     1      -6.183   1.531   0.985  0.00  0.00    +0.000 A 
ENDBRANCH   2  31
ENDBRANCH   3   2
ENDBRANCH   4   3
ENDBRANCH   5   4
BRANCH   7   8
ATOM      8  O   UNL     1       0.831  -0.346  -0.152  0.00  0.00    +0.000 OA
BRANCH   8   9
ATOM      9  C   UNL     1       1.518   0.820   0.222  0.00  0.00    +0.000 A 
ATOM     10  C   UNL     1       2.476   1.317  -0.670  0.00  0.00    +0.000 A 
ATOM     11  C   UNL     1       3.840   1.119  -0.421  0.00  0.00    +0.000 A 
ATOM     12  C   UNL     1       4.296   0.600   0.790  0.00  0.00    +0.000 A 
ATOM     23  C   UNL     1       3.366   0.863   1.804  0.00  0.00    +0.000 A 
ATOM     24  C   UNL     1       2.002   0.985   1.523  0.00  0.00    +0.000 A 
BRANCH  12  13
ATOM     13  C   UNL     1       4.962  -0.708   0.927  0.00  0.00    +0.000 C 
ATOM     14  C   UNL     1       5.533  -1.098  -0.216  0.00  0.00    +0.000 C 
BRANCH  14  15
ATOM     15  C   UNL     1       6.789  -0.401  -0.302  0.00  0.00    +0.000 A 
ATOM     16  C   UNL     1       7.050   0.888  -0.594  0.00  0.00    +0.000 A 
ATOM     17  C   UNL     1       8.227   1.496  -0.172  0.00  0.00    +0.000 A 
ATOM     18  O   UNL     1       8.236   2.877  -0.105  0.00  0.00    +0.000 OA
ATOM     19  C   UNL     1       9.189   0.692   0.407  0.00  0.00    +0.000 A 
ATOM     20  C   UNL     1       9.070  -0.682   0.460  0.00  0.00    +0.000 A 
ATOM     21  O   UNL     1      10.148  -1.542   0.637  0.00  0.00    +0.000 OA
ATOM     22  C   UNL     1       7.848  -1.196   0.131  0.00  0.00    +0.000 A 
ENDBRANCH  14  15
ENDBRANCH  12  13
ENDBRANCH   8   9
ENDBRANCH   7   8
TORSDOF 8
