
     RDKit          3D

 39 42  0  0  0  0  0  0  0  0999 V2000
   -4.3997   -1.2432   -0.3184 O   0  0  0  0  0  0  0  0  0  0  0  0
   -4.6245   -1.1485   -0.2221 C   0  0  0  0  0  0  0  0  0  0  0  0
   -4.3632   -1.2637    1.1476 O   0  0  0  0  0  0  0  0  0  0  0  0
   -3.4016   -0.4258    1.7868 C   0  0  0  0  0  0  0  0  0  0  0  0
   -2.1678   -0.6551    0.7369 C   0  0  2  0  0  0  0  0  0  0  0  0
   -1.1508    0.1575    1.5070 O   0  0  0  0  0  0  0  0  0  0  0  0
   -0.0660   -0.6916    0.8514 C   0  0  2  0  0  0  0  0  0  0  0  0
    1.0871    0.2311    1.3214 O   0  0  0  0  0  0  0  0  0  0  0  0
    2.2453    0.0773    0.5934 C   0  0  0  0  0  0  0  0  0  0  0  0
    3.5280   -0.0994    1.0756 C   0  0  0  0  0  0  0  0  0  0  0  0
    4.5978   -0.0285    0.1718 C   0  0  0  0  0  0  0  0  0  0  0  0
    4.4177   -0.3124   -1.1538 C   0  0  0  0  0  0  0  0  0  0  0  0
    5.2989   -0.1474   -2.2783 C   0  0  0  0  0  0  0  0  0  0  0  0
    6.3197    0.6670   -2.2793 C   0  0  0  0  0  0  0  0  0  0  0  0
    7.2118    0.3320   -1.1625 C   0  0  0  0  0  0  0  0  0  0  0  0
    8.0044    1.3392   -0.6970 C   0  0  0  0  0  0  0  0  0  0  0  0
    8.8940    1.0392    0.3021 C   0  0  0  0  0  0  0  0  0  0  0  0
    9.7249    2.0594    0.7328 O   0  0  0  0  0  0  0  0  0  0  0  0
    8.8455   -0.2008    0.9267 C   0  0  0  0  0  0  0  0  0  0  0  0
    8.1694   -1.2764    0.3628 C   0  0  0  0  0  0  0  0  0  0  0  0
    7.6040   -2.1698    1.2831 O   0  0  0  0  0  0  0  0  0  0  0  0
    7.5430   -0.9807   -0.8448 C   0  0  0  0  0  0  0  0  0  0  0  0
    3.0863   -0.2963   -1.5783 C   0  0  0  0  0  0  0  0  0  0  0  0
    2.2763    0.4554   -0.7561 C   0  0  0  0  0  0  0  0  0  0  0  0
   -0.0761    0.1028   -0.6886 C   0  0  1  0  0  0  0  0  0  0  0  0
   -1.0912   -0.7815   -1.3400 O   0  0  0  0  0  0  0  0  0  0  0  0
   -1.0661    1.4110   -0.2332 C   0  0  1  0  0  0  0  0  0  0  0  0
   -1.1331    1.8756   -1.6582 O   0  0  0  0  0  0  0  0  0  0  0  0
   -2.5702    0.6277   -0.3430 C   0  0  2  0  0  0  0  0  0  0  0  0
   -3.1323    1.5756    0.6715 O   0  0  0  0  0  0  0  0  0  0  0  0
   -5.9492   -0.7467   -0.7285 C   0  0  0  0  0  0  0  0  0  0  0  0
   -7.0525   -1.5797   -0.5861 C   0  0  0  0  0  0  0  0  0  0  0  0
   -8.2699   -1.0810   -0.1379 C   0  0  0  0  0  0  0  0  0  0  0  0
   -9.2538   -1.9925    0.2440 O   0  0  0  0  0  0  0  0  0  0  0  0
   -8.3599    0.2448    0.2751 C   0  0  0  0  0  0  0  0  0  0  0  0
   -9.5978    0.7828    0.5680 O   0  0  0  0  0  0  0  0  0  0  0  0
   -7.4231    1.1304   -0.2520 C   0  0  0  0  0  0  0  0  0  0  0  0
   -7.3876    2.4297    0.2755 O   0  0  0  0  0  0  0  0  0  0  0  0
   -6.3181    0.5825   -0.8980 C   0  0  0  0  0  0  0  0  0  0  0  0
  1  2  2  0
  2  3  1  0
  3  4  1  0
  5  4  1  1
  5  6  1  0
  6  7  1  0
  7  8  1  1
  8  9  1  0
  9 10  2  0
 10 11  1  0
 11 12  2  0
 12 13  1  0
 13 14  2  0
 14 15  1  0
 15 16  2  0
 16 17  1  0
 17 18  1  0
 17 19  2  0
 19 20  1  0
 20 21  1  0
 20 22  2  0
 12 23  1  0
 23 24  2  0
  7 25  1  0
 25 26  1  6
 25 27  1  0
 27 28  1  6
 27 29  1  0
 29 30  1  1
  2 31  1  0
 31 32  2  0
 32 33  1  0
 33 34  1  0
 33 35  2  0
 35 36  1  0
 35 37  1  0
 37 38  1  0
 37 39  2  0
 29  5  1  0
 39 31  1  0
 24  9  1  0
 22 15  1  0
M  END
>  <zinc_id>  (1) 
ZINC000230079520

>  <smiles>  (1) 
O=C(OC[C@@H]1O[C@H](Oc2ccc(/C=C\c3cc(O)cc(O)c3)cc2)[C@@H](O)[C@@H](O)[C@@H]1O)c1cc(O)c(O)c(O)c1

$$$$
