REMARK  Name = 
REMARK  8 active torsions:
REMARK  status: ('A' for Active; 'I' for Inactive)
REMARK    1  A    between atoms: C_2  and  O_3
REMARK    2  A    between atoms: C_2  and  C_31
REMARK    3  A    between atoms: O_3  and  C_4
REMARK    4  A    between atoms: C_4  and  C_5
REMARK    5  A    between atoms: C_7  and  O_8
REMARK    6  A    between atoms: O_8  and  C_9
REMARK    7  A    between atoms: C_12  and  C_13
REMARK    8  A    between atoms: C_14  and  C_15
REMARK                            x       y       z     vdW  Elec       q    Type
REMARK                         _______ _______ _______ _____ _____    ______ ____
ROOT
ATOM      5  C   UNL     1      -2.404  -1.842  -0.200  0.00  0.00    +0.000 C 
ATOM      6  O   UNL     1      -1.449  -1.820   1.006  0.00  0.00    +0.000 OA
ATOM      7  C   UNL     1      -0.325  -1.637  -0.055  0.00  0.00    +0.000 C 
ATOM     25  C   UNL     1       0.145  -3.337  -0.086  0.00  0.00    +0.000 C 
ATOM     26  O   UNL     1      -0.599  -3.774   1.150  0.00  0.00    +0.000 OA
ATOM     27  C   UNL     1      -1.079  -3.800  -1.226  0.00  0.00    +0.000 C 
ATOM     28  O   UNL     1      -1.179  -2.457  -1.933  0.00  0.00    +0.000 OA
ATOM     29  C   UNL     1      -2.423  -3.581  -0.155  0.00  0.00    +0.000 C 
ATOM     30  O   UNL     1      -3.361  -3.639  -1.339  0.00  0.00    +0.000 OA
ENDROOT
BRANCH   5   4
ATOM      4  C   UNL     1      -3.748  -1.814   0.779  0.00  0.00    +0.000 C 
BRANCH   4   3
ATOM      3  O   UNL     1      -4.712  -1.254  -0.109  0.00  0.00    +0.000 OA
BRANCH   3   2
ATOM      1  O   UNL     1      -3.319   0.258  -1.006  0.00  0.00    +0.000 OA
ATOM      2  C   UNL     1      -4.518  -0.070  -0.784  0.00  0.00    +0.000 C 
BRANCH   2  31
ATOM     31  C   UNL     1      -5.517   1.004  -0.834  0.00  0.00    +0.000 A 
ATOM     32  C   UNL     1      -6.790   0.789  -1.280  0.00  0.00    +0.000 A 
ATOM     33  C   UNL     1      -7.806   1.714  -1.153  0.00  0.00    +0.000 A 
ATOM     34  O   UNL     1      -9.103   1.449  -1.571  0.00  0.00    +0.000 OA
ATOM     35  C   UNL     1      -7.567   2.762  -0.271  0.00  0.00    +0.000 A 
ATOM     36  O   UNL     1      -8.607   3.664  -0.048  0.00  0.00    +0.000 OA
ATOM     37  C   UNL     1      -6.346   2.925   0.339  0.00  0.00    +0.000 A 
ATOM     38  O   UNL     1      -6.155   4.025   1.176  0.00  0.00    +0.000 OA
ATOM     39  C   UNL     1      -5.284   2.119  -0.046  0.00  0.00    +0.000 A 
ENDBRANCH   2  31
ENDBRANCH   3   2
ENDBRANCH   4   3
ENDBRANCH   5   4
BRANCH   7   8
ATOM      8  O   UNL     1       0.763  -1.362   1.054  0.00  0.00    +0.000 OA
BRANCH   8   9
ATOM      9  C   UNL     1       1.968  -1.278   0.370  0.00  0.00    +0.000 A 
ATOM     10  C   UNL     1       2.687  -2.407  -0.012  0.00  0.00    +0.000 A 
ATOM     11  C   UNL     1       4.044  -2.318  -0.306  0.00  0.00    +0.000 A 
ATOM     12  C   UNL     1       4.753  -1.143  -0.039  0.00  0.00    +0.000 A 
ATOM     23  C   UNL     1       3.957  -0.030  -0.008  0.00  0.00    +0.000 A 
ATOM     24  C   UNL     1       2.565  -0.078   0.005  0.00  0.00    +0.000 A 
BRANCH  12  13
ATOM     13  C   UNL     1       5.997  -1.310   0.723  0.00  0.00    +0.000 C 
ATOM     14  C   UNL     1       6.289  -0.275   1.515  0.00  0.00    +0.000 C 
BRANCH  14  15
ATOM     15  C   UNL     1       6.592   0.915   0.707  0.00  0.00    +0.000 A 
ATOM     16  C   UNL     1       7.752   0.825  -0.053  0.00  0.00    +0.000 A 
ATOM     17  C   UNL     1       8.508   1.940  -0.382  0.00  0.00    +0.000 A 
ATOM     18  O   UNL     1       9.834   1.843  -0.817  0.00  0.00    +0.000 OA
ATOM     19  C   UNL     1       7.872   3.165  -0.219  0.00  0.00    +0.000 A 
ATOM     20  C   UNL     1       6.633   3.286   0.388  0.00  0.00    +0.000 A 
ATOM     21  O   UNL     1       5.780   4.366   0.138  0.00  0.00    +0.000 OA
ATOM     22  C   UNL     1       6.154   2.179   1.057  0.00  0.00    +0.000 A 
ENDBRANCH  14  15
ENDBRANCH  12  13
ENDBRANCH   8   9
ENDBRANCH   7   8
TORSDOF 8
