
     RDKit          3D

 28 30  0  0  0  0  0  0  0  0999 V2000
   -4.4367    2.0768    0.5523 O   0  0  0  0  0  0  0  0  0  0  0  0
   -4.0896    1.9217    1.1375 C   0  0  0  0  0  0  0  0  0  0  0  0
   -3.5598    0.3489    1.0558 C   0  0  2  0  0  0  0  0  0  0  0  0
   -3.7999    0.3253   -0.4472 O   0  0  0  0  0  0  0  0  0  0  0  0
   -3.0477   -0.9548   -0.8745 C   0  0  1  0  0  0  0  0  0  0  0  0
   -2.1807   -1.0634    0.4360 O   0  0  0  0  0  0  0  0  0  0  0  0
   -0.9342   -0.5945    0.1425 C   0  0  0  0  0  0  0  0  0  0  0  0
    0.0254   -0.8476    1.1081 C   0  0  0  0  0  0  0  0  0  0  0  0
    1.1907   -0.0929    1.1688 C   0  0  0  0  0  0  0  0  0  0  0  0
    1.4435    0.8373    0.1697 C   0  0  0  0  0  0  0  0  0  0  0  0
    2.4345    1.9159    0.3520 C   0  0  0  0  0  0  0  0  0  0  0  0
    3.2537    1.9039   -0.7106 C   0  0  0  0  0  0  0  0  0  0  0  0
    4.2544    0.8557   -0.5047 C   0  0  0  0  0  0  0  0  0  0  0  0
    4.1856   -0.4259   -0.9514 C   0  0  0  0  0  0  0  0  0  0  0  0
    5.2554   -1.2467   -0.6282 C   0  0  0  0  0  0  0  0  0  0  0  0
    5.1747   -2.6323   -0.6341 O   0  0  0  0  0  0  0  0  0  0  0  0
    6.4815   -0.7459   -0.1988 C   0  0  0  0  0  0  0  0  0  0  0  0
    6.5996    0.5833    0.0988 C   0  0  0  0  0  0  0  0  0  0  0  0
    7.8446    1.2009    0.1864 O   0  0  0  0  0  0  0  0  0  0  0  0
    5.4280    1.3245    0.0794 C   0  0  0  0  0  0  0  0  0  0  0  0
    0.3383    1.3202   -0.5263 C   0  0  0  0  0  0  0  0  0  0  0  0
   -0.6797    0.4062   -0.7815 C   0  0  0  0  0  0  0  0  0  0  0  0
   -4.3019   -2.0693   -0.3279 C   0  0  1  0  0  0  0  0  0  0  0  0
   -3.8764   -2.1608    1.1078 O   0  0  0  0  0  0  0  0  0  0  0  0
   -5.4742   -0.8106   -0.1606 C   0  0  1  0  0  0  0  0  0  0  0  0
   -6.5054   -1.8000    0.3196 O   0  0  0  0  0  0  0  0  0  0  0  0
   -5.0850   -0.4031    1.4703 C   0  0  2  0  0  0  0  0  0  0  0  0
   -5.9388    0.8272    1.3384 O   0  0  0  0  0  0  0  0  0  0  0  0
  1  2  1  0
  3  2  1  1
  3  4  1  0
  4  5  1  0
  5  6  1  1
  6  7  1  0
  7  8  2  0
  8  9  1  0
  9 10  2  0
 10 11  1  0
 11 12  2  0
 12 13  1  0
 13 14  2  0
 14 15  1  0
 15 16  1  0
 15 17  2  0
 17 18  1  0
 18 19  1  0
 18 20  2  0
 10 21  1  0
 21 22  2  0
  5 23  1  0
 23 24  1  1
 23 25  1  0
 25 26  1  1
 25 27  1  0
 27 28  1  6
 27  3  1  0
 22  7  1  0
 20 13  1  0
M  END
>  <zinc_id>  (1) 
ZINC000015112534

>  <smiles>  (1) 
OC[C@@H]1O[C@@H](Oc2ccc(/C=C\c3cc(O)cc(O)c3)cc2)[C@@H](O)[C@@H](O)[C@@H]1O

$$$$
