
     RDKit          3D

 39 42  0  0  0  0  0  0  0  0999 V2000
   -4.4631    0.1034   -0.1181 O   0  0  0  0  0  0  0  0  0  0  0  0
   -4.8036   -0.1921   -0.0236 C   0  0  0  0  0  0  0  0  0  0  0  0
   -4.1279   -1.1508    0.5842 O   0  0  0  0  0  0  0  0  0  0  0  0
   -2.7586   -0.9457    0.3730 C   0  0  0  0  0  0  0  0  0  0  0  0
   -1.9768   -2.3234    0.8086 C   0  0  2  0  0  0  0  0  0  0  0  0
   -0.5812   -1.7816    0.7922 O   0  0  0  0  0  0  0  0  0  0  0  0
   -0.6622   -0.3677    0.2722 C   0  0  1  0  0  0  0  0  0  0  0  0
    0.8307   -0.3460   -0.1525 O   0  0  0  0  0  0  0  0  0  0  0  0
    1.5183    0.8201    0.2218 C   0  0  0  0  0  0  0  0  0  0  0  0
    2.4759    1.3175   -0.6701 C   0  0  0  0  0  0  0  0  0  0  0  0
    3.8398    1.1188   -0.4206 C   0  0  0  0  0  0  0  0  0  0  0  0
    4.2961    0.6004    0.7897 C   0  0  0  0  0  0  0  0  0  0  0  0
    4.9615   -0.7078    0.9268 C   0  0  0  0  0  0  0  0  0  0  0  0
    5.5327   -1.0980   -0.2165 C   0  0  0  0  0  0  0  0  0  0  0  0
    6.7889   -0.4008   -0.3024 C   0  0  0  0  0  0  0  0  0  0  0  0
    7.0501    0.8879   -0.5938 C   0  0  0  0  0  0  0  0  0  0  0  0
    8.2268    1.4959   -0.1721 C   0  0  0  0  0  0  0  0  0  0  0  0
    8.2362    2.8770   -0.1053 O   0  0  0  0  0  0  0  0  0  0  0  0
    9.1892    0.6917    0.4075 C   0  0  0  0  0  0  0  0  0  0  0  0
    9.0697   -0.6823    0.4599 C   0  0  0  0  0  0  0  0  0  0  0  0
   10.1481   -1.5415    0.6371 O   0  0  0  0  0  0  0  0  0  0  0  0
    7.8485   -1.1963    0.1313 C   0  0  0  0  0  0  0  0  0  0  0  0
    3.3663    0.8632    1.8037 C   0  0  0  0  0  0  0  0  0  0  0  0
    2.0016    0.9845    1.5234 C   0  0  0  0  0  0  0  0  0  0  0  0
   -1.2762   -0.7379   -1.3117 C   0  0  1  0  0  0  0  0  0  0  0  0
   -0.1530   -0.1213   -2.0949 O   0  0  0  0  0  0  0  0  0  0  0  0
   -0.6855   -2.3118   -1.5719 C   0  0  1  0  0  0  0  0  0  0  0  0
    0.4067   -2.4480   -0.5585 O   0  0  0  0  0  0  0  0  0  0  0  0
   -1.9399   -3.1296   -0.7223 C   0  0  2  0  0  0  0  0  0  0  0  0
   -3.0551   -2.3478   -1.3733 O   0  0  0  0  0  0  0  0  0  0  0  0
   -5.9015    0.6005   -0.0065 C   0  0  0  0  0  0  0  0  0  0  0  0
   -6.6625    0.8178   -1.1493 C   0  0  0  0  0  0  0  0  0  0  0  0
   -7.9974    1.1608   -0.9648 C   0  0  0  0  0  0  0  0  0  0  0  0
   -8.8698    1.1054   -2.0328 O   0  0  0  0  0  0  0  0  0  0  0  0
   -8.4546    1.5702    0.2844 C   0  0  0  0  0  0  0  0  0  0  0  0
   -9.7965    1.3614    0.6190 O   0  0  0  0  0  0  0  0  0  0  0  0
   -7.5213    1.7325    1.3044 C   0  0  0  0  0  0  0  0  0  0  0  0
   -7.9172    2.1908    2.5630 O   0  0  0  0  0  0  0  0  0  0  0  0
   -6.1831    1.5306    0.9854 C   0  0  0  0  0  0  0  0  0  0  0  0
  1  2  2  0
  2  3  1  0
  3  4  1  0
  5  4  1  6
  5  6  1  0
  6  7  1  0
  7  8  1  6
  8  9  1  0
  9 10  2  0
 10 11  1  0
 11 12  2  0
 12 13  1  0
 13 14  2  0
 14 15  1  0
 15 16  2  0
 16 17  1  0
 17 18  1  0
 17 19  2  0
 19 20  1  0
 20 21  1  0
 20 22  2  0
 12 23  1  0
 23 24  2  0
  7 25  1  0
 25 26  1  6
 25 27  1  0
 27 28  1  1
 27 29  1  0
 29 30  1  6
  2 31  1  0
 31 32  2  0
 32 33  1  0
 33 34  1  0
 33 35  2  0
 35 36  1  0
 35 37  1  0
 37 38  1  0
 37 39  2  0
 29  5  1  0
 39 31  1  0
 24  9  1  0
 22 15  1  0
M  END
>  <zinc_id>  (1) 
ZINC000230079510

>  <smiles>  (1) 
O=C(OC[C@@H]1O[C@@H](Oc2ccc(/C=C\c3cc(O)cc(O)c3)cc2)[C@@H](O)[C@@H](O)[C@@H]1O)c1cc(O)c(O)c(O)c1

$$$$
