
     RDKit          3D

 21 22  0  0  0  0  0  0  0  0999 V2000
    5.4915    2.2475   -0.7489 O   0  0  0  0  0  0  0  0  0  0  0  0
    5.0161    0.9660   -0.1030 S   0  0  0  0  0  0  0  0  0  0  0  0
    6.1373   -0.0416   -0.0083 O   0  0  0  0  0  0  0  0  0  0  0  0
    4.4842    1.3011    1.4552 O   0  0  0  0  0  0  0  0  0  0  0  0
    3.7389    0.3418   -1.0124 O   0  0  0  0  0  0  0  0  0  0  0  0
    2.5240   -0.0549   -0.5001 C   0  0  0  0  0  0  0  0  0  0  0  0
    2.0865   -1.3243   -0.8567 C   0  0  0  0  0  0  0  0  0  0  0  0
    0.7372   -1.6345   -0.9568 C   0  0  0  0  0  0  0  0  0  0  0  0
    0.3172   -2.9647   -0.9435 O   0  0  0  0  0  0  0  0  0  0  0  0
   -0.1548   -0.7004   -0.4646 C   0  0  0  0  0  0  0  0  0  0  0  0
    0.2292    0.5348   -0.0261 C   0  0  0  0  0  0  0  0  0  0  0  0
   -0.6848    1.6256    0.2744 C   0  0  0  0  0  0  0  0  0  0  0  0
   -1.7765    1.2782    0.9561 C   0  0  0  0  0  0  0  0  0  0  0  0
   -2.5754    0.2061    0.3450 C   0  0  0  0  0  0  0  0  0  0  0  0
   -3.2005    0.5272   -0.8522 C   0  0  0  0  0  0  0  0  0  0  0  0
   -4.3641   -0.1360   -1.1968 C   0  0  0  0  0  0  0  0  0  0  0  0
   -5.1683   -0.7378   -0.2403 C   0  0  0  0  0  0  0  0  0  0  0  0
   -6.5589   -0.6344   -0.2740 O   0  0  0  0  0  0  0  0  0  0  0  0
   -4.5654   -1.0492    0.9622 C   0  0  0  0  0  0  0  0  0  0  0  0
   -3.2991   -0.5778    1.2357 C   0  0  0  0  0  0  0  0  0  0  0  0
    1.5857    0.8271    0.0176 C   0  0  0  0  0  0  0  0  0  0  0  0
  1  2  2  0
  2  3  2  0
  2  4  1  0
  2  5  1  0
  5  6  1  0
  6  7  2  0
  7  8  1  0
  8  9  1  0
  8 10  2  0
 10 11  1  0
 11 12  1  0
 12 13  2  0
 13 14  1  0
 14 15  2  0
 15 16  1  0
 16 17  2  0
 17 18  1  0
 17 19  1  0
 19 20  2  0
 11 21  2  0
 21  6  1  0
 20 14  1  0
M  END
>  <zinc_id>  (1) 
ZINC000095620822

>  <smiles>  (1) 
O=S(=O)(O)Oc1cc(O)cc(/C=C\c2ccc(O)cc2)c1

$$$$
