
     RDKit          3D

 28 30  0  0  0  0  0  0  0  0999 V2000
   -6.2862   -1.9835    1.1044 O   0  0  0  0  0  0  0  0  0  0  0  0
   -5.7521   -1.8047    0.8742 C   0  0  0  0  0  0  0  0  0  0  0  0
   -4.9682   -0.4054    1.2515 C   0  0  1  0  0  0  0  0  0  0  0  0
   -3.6346   -0.9490    0.8445 O   0  0  0  0  0  0  0  0  0  0  0  0
   -3.2642    0.4829    1.2062 C   0  0  1  0  0  0  0  0  0  0  0  0
   -1.8612    0.0182    1.6642 O   0  0  0  0  0  0  0  0  0  0  0  0
   -0.7746    0.2303    0.9136 C   0  0  0  0  0  0  0  0  0  0  0  0
   -0.3903    1.5107    0.5367 C   0  0  0  0  0  0  0  0  0  0  0  0
    0.3666    1.7422   -0.6040 C   0  0  0  0  0  0  0  0  0  0  0  0
    0.1098    2.8226   -1.4421 O   0  0  0  0  0  0  0  0  0  0  0  0
    0.9767    0.6290   -1.1176 C   0  0  0  0  0  0  0  0  0  0  0  0
    1.0238   -0.5685   -0.4061 C   0  0  0  0  0  0  0  0  0  0  0  0
    2.1709   -1.4108   -0.7018 C   0  0  0  0  0  0  0  0  0  0  0  0
    3.3622   -1.3639   -0.3397 C   0  0  0  0  0  0  0  0  0  0  0  0
    4.5944   -0.7306   -0.6693 C   0  0  0  0  0  0  0  0  0  0  0  0
    5.7007   -1.3321   -1.2438 C   0  0  0  0  0  0  0  0  0  0  0  0
    6.9556   -1.0540   -0.7207 C   0  0  0  0  0  0  0  0  0  0  0  0
    7.1460   -0.0805    0.2525 C   0  0  0  0  0  0  0  0  0  0  0  0
    8.0902   -0.2231    1.2678 O   0  0  0  0  0  0  0  0  0  0  0  0
    6.0876    0.7848    0.5130 C   0  0  0  0  0  0  0  0  0  0  0  0
    4.8832    0.5203   -0.1183 C   0  0  0  0  0  0  0  0  0  0  0  0
    0.1165   -0.7855    0.5951 C   0  0  0  0  0  0  0  0  0  0  0  0
   -2.7792    0.7549   -0.4004 C   0  0  2  0  0  0  0  0  0  0  0  0
   -3.1928    2.2023   -0.3901 O   0  0  0  0  0  0  0  0  0  0  0  0
   -4.1375    0.2392   -1.2712 C   0  0  1  0  0  0  0  0  0  0  0  0
   -3.8535   -1.2474   -1.1856 O   0  0  0  0  0  0  0  0  0  0  0  0
   -5.4624    0.3012   -0.2131 C   0  0  2  0  0  0  0  0  0  0  0  0
   -5.2276    1.7005    0.3060 O   0  0  0  0  0  0  0  0  0  0  0  0
  1  2  1  0
  3  2  1  6
  3  4  1  0
  4  5  1  0
  5  6  1  1
  6  7  1  0
  7  8  2  0
  8  9  1  0
  9 10  1  0
  9 11  2  0
 11 12  1  0
 12 13  1  0
 13 14  2  0
 14 15  1  0
 15 16  2  0
 16 17  1  0
 17 18  2  0
 18 19  1  0
 18 20  1  0
 20 21  2  0
 12 22  2  0
  5 23  1  0
 23 24  1  1
 23 25  1  0
 25 26  1  1
 25 27  1  0
 27 28  1  1
 27  3  1  0
 22  7  1  0
 21 15  1  0
M  END
>  <zinc_id>  (1) 
ZINC000004098633

>  <smiles>  (1) 
OC[C@H]1O[C@@H](Oc2cc(O)cc(/C=C/c3ccc(O)cc3)c2)[C@H](O)[C@@H](O)[C@@H]1O

$$$$
