REMARK  Name = 
REMARK  5 active torsions:
REMARK  status: ('A' for Active; 'I' for Inactive)
REMARK    1  A    between atoms: C_2  and  C_3
REMARK    2  A    between atoms: C_5  and  O_6
REMARK    3  A    between atoms: O_6  and  C_7
REMARK    4  A    between atoms: C_12  and  C_13
REMARK    5  A    between atoms: C_14  and  C_15
REMARK                            x       y       z     vdW  Elec       q    Type
REMARK                         _______ _______ _______ _____ _____    ______ ____
ROOT
ATOM      7  C   UNL     1      -0.775   0.230   0.914  0.00  0.00    +0.000 A 
ATOM      8  C   UNL     1      -0.390   1.511   0.537  0.00  0.00    +0.000 A 
ATOM      9  C   UNL     1       0.367   1.742  -0.604  0.00  0.00    +0.000 A 
ATOM     10  O   UNL     1       0.110   2.823  -1.442  0.00  0.00    +0.000 OA
ATOM     11  C   UNL     1       0.977   0.629  -1.118  0.00  0.00    +0.000 A 
ATOM     12  C   UNL     1       1.024  -0.569  -0.406  0.00  0.00    +0.000 A 
ATOM     22  C   UNL     1       0.117  -0.785   0.595  0.00  0.00    +0.000 A 
ENDROOT
BRANCH  12  13
ATOM     13  C   UNL     1       2.171  -1.411  -0.702  0.00  0.00    +0.000 C 
ATOM     14  C   UNL     1       3.362  -1.364  -0.340  0.00  0.00    +0.000 C 
BRANCH  14  15
ATOM     15  C   UNL     1       4.594  -0.731  -0.669  0.00  0.00    +0.000 A 
ATOM     16  C   UNL     1       5.701  -1.332  -1.244  0.00  0.00    +0.000 A 
ATOM     17  C   UNL     1       6.956  -1.054  -0.721  0.00  0.00    +0.000 A 
ATOM     18  C   UNL     1       7.146  -0.081   0.253  0.00  0.00    +0.000 A 
ATOM     19  O   UNL     1       8.090  -0.223   1.268  0.00  0.00    +0.000 OA
ATOM     20  C   UNL     1       6.088   0.785   0.513  0.00  0.00    +0.000 A 
ATOM     21  C   UNL     1       4.883   0.520  -0.118  0.00  0.00    +0.000 A 
ENDBRANCH  14  15
ENDBRANCH  12  13
BRANCH   7   6
ATOM      6  O   UNL     1      -1.861   0.018   1.664  0.00  0.00    +0.000 OA
BRANCH   6   5
ATOM      3  C   UNL     1      -4.968  -0.405   1.252  0.00  0.00    +0.000 C 
ATOM      4  O   UNL     1      -3.635  -0.949   0.845  0.00  0.00    +0.000 OA
ATOM      5  C   UNL     1      -3.264   0.483   1.206  0.00  0.00    +0.000 C 
ATOM     23  C   UNL     1      -2.779   0.755  -0.400  0.00  0.00    +0.000 C 
ATOM     24  O   UNL     1      -3.193   2.202  -0.390  0.00  0.00    +0.000 OA
ATOM     25  C   UNL     1      -4.138   0.239  -1.271  0.00  0.00    +0.000 C 
ATOM     26  O   UNL     1      -3.853  -1.247  -1.186  0.00  0.00    +0.000 OA
ATOM     27  C   UNL     1      -5.462   0.301  -0.213  0.00  0.00    +0.000 C 
ATOM     28  O   UNL     1      -5.228   1.700   0.306  0.00  0.00    +0.000 OA
BRANCH   3   2
ATOM      1  O   UNL     1      -6.286  -1.984   1.104  0.00  0.00    +0.000 OA
ATOM      2  C   UNL     1      -5.752  -1.805   0.874  0.00  0.00    +0.000 C 
ENDBRANCH   3   2
ENDBRANCH   6   5
ENDBRANCH   7   6
TORSDOF 5
