
     RDKit          3D

 39 42  0  0  0  0  0  0  0  0999 V2000
   -5.5137   -1.7698   -1.0962 O   0  0  0  0  0  0  0  0  0  0  0  0
   -5.0325   -1.0646   -0.4971 C   0  0  0  0  0  0  0  0  0  0  0  0
   -3.6893   -1.3036   -0.1799 O   0  0  0  0  0  0  0  0  0  0  0  0
   -2.9342   -1.7933   -1.2913 C   0  0  0  0  0  0  0  0  0  0  0  0
   -1.3699   -1.6065   -0.7580 C   0  0  2  0  0  0  0  0  0  0  0  0
   -1.5278   -0.0858   -0.7934 O   0  0  0  0  0  0  0  0  0  0  0  0
   -0.1401    0.3750   -0.2443 C   0  0  1  0  0  0  0  0  0  0  0  0
    0.3608   -1.0558    0.1781 O   0  0  0  0  0  0  0  0  0  0  0  0
    1.3083   -1.1217    1.1389 C   0  0  0  0  0  0  0  0  0  0  0  0
    1.7499   -2.4222    1.3829 C   0  0  0  0  0  0  0  0  0  0  0  0
    3.1128   -2.7230    1.4465 C   0  0  0  0  0  0  0  0  0  0  0  0
    4.0695   -1.7355    1.2005 C   0  0  0  0  0  0  0  0  0  0  0  0
    5.1499   -1.9667    0.2489 C   0  0  0  0  0  0  0  0  0  0  0  0
    5.3320   -1.0832   -0.7382 C   0  0  0  0  0  0  0  0  0  0  0  0
    5.6952    0.2120   -0.1356 C   0  0  0  0  0  0  0  0  0  0  0  0
    6.9701    0.2171    0.4198 C   0  0  0  0  0  0  0  0  0  0  0  0
    7.6789    1.3519    0.6821 C   0  0  0  0  0  0  0  0  0  0  0  0
    9.0492    1.2338    0.9384 O   0  0  0  0  0  0  0  0  0  0  0  0
    7.1232    2.5555    0.3161 C   0  0  0  0  0  0  0  0  0  0  0  0
    5.9449    2.5765   -0.4178 C   0  0  0  0  0  0  0  0  0  0  0  0
    5.4025    3.8435   -0.6595 O   0  0  0  0  0  0  0  0  0  0  0  0
    5.2091    1.4114   -0.6071 C   0  0  0  0  0  0  0  0  0  0  0  0
    3.5922   -0.4797    1.5610 C   0  0  0  0  0  0  0  0  0  0  0  0
    2.2250   -0.1871    1.5338 C   0  0  0  0  0  0  0  0  0  0  0  0
    0.5369    0.3285   -1.8776 C   0  0  1  0  0  0  0  0  0  0  0  0
    1.9309    0.6201   -1.3884 O   0  0  0  0  0  0  0  0  0  0  0  0
    0.8291   -1.3710   -1.8639 C   0  0  2  0  0  0  0  0  0  0  0  0
    1.3264   -1.2978   -3.2926 O   0  0  0  0  0  0  0  0  0  0  0  0
   -0.7890   -1.6668   -2.4064 C   0  0  1  0  0  0  0  0  0  0  0  0
   -0.5797   -3.1578   -2.3060 O   0  0  0  0  0  0  0  0  0  0  0  0
   -5.8012    0.0355    0.0635 C   0  0  0  0  0  0  0  0  0  0  0  0
   -5.6254    1.3347   -0.3993 C   0  0  0  0  0  0  0  0  0  0  0  0
   -6.6264    2.2385   -0.0947 C   0  0  0  0  0  0  0  0  0  0  0  0
   -6.7405    3.4676   -0.7508 O   0  0  0  0  0  0  0  0  0  0  0  0
   -7.5409    2.0111    0.9181 C   0  0  0  0  0  0  0  0  0  0  0  0
   -8.7685    2.6675    0.9543 O   0  0  0  0  0  0  0  0  0  0  0  0
   -7.3341    0.8733    1.6854 C   0  0  0  0  0  0  0  0  0  0  0  0
   -8.2128    0.5882    2.7362 O   0  0  0  0  0  0  0  0  0  0  0  0
   -6.3708   -0.0498    1.3290 C   0  0  0  0  0  0  0  0  0  0  0  0
  1  2  2  0
  2  3  1  0
  3  4  1  0
  5  4  1  6
  5  6  1  0
  6  7  1  0
  7  8  1  1
  8  9  1  0
  9 10  2  0
 10 11  1  0
 11 12  2  0
 12 13  1  0
 13 14  2  0
 14 15  1  0
 15 16  2  0
 16 17  1  0
 17 18  1  0
 17 19  2  0
 19 20  1  0
 20 21  1  0
 20 22  2  0
 12 23  1  0
 23 24  2  0
  7 25  1  0
 25 26  1  1
 25 27  1  0
 27 28  1  6
 27 29  1  0
 29 30  1  1
  2 31  1  0
 31 32  2  0
 32 33  1  0
 33 34  1  0
 33 35  2  0
 35 36  1  0
 35 37  1  0
 37 38  1  0
 37 39  2  0
 29  5  1  0
 39 31  1  0
 24  9  1  0
 22 15  1  0
M  END
>  <zinc_id>  (1) 
ZINC000100823228

>  <smiles>  (1) 
O=C(OC[C@@H]1O[C@@H](Oc2ccc(/C=C\c3cc(O)cc(O)c3)cc2)[C@@H](O)[C@H](O)[C@H]1O)c1cc(O)c(O)c(O)c1

$$$$
