
     RDKit          3D

 39 42  0  0  0  0  0  0  0  0999 V2000
   -4.9766   -1.0620   -1.9361 O   0  0  0  0  0  0  0  0  0  0  0  0
   -5.4039   -0.8899   -1.1867 C   0  0  0  0  0  0  0  0  0  0  0  0
   -4.3930   -1.1114   -0.3724 O   0  0  0  0  0  0  0  0  0  0  0  0
   -3.3286   -1.2591    0.2220 C   0  0  0  0  0  0  0  0  0  0  0  0
   -1.9803   -0.6627   -0.4744 C   0  0  1  0  0  0  0  0  0  0  0  0
   -1.1231   -1.1184    0.6788 O   0  0  0  0  0  0  0  0  0  0  0  0
    0.1023   -0.2290    0.4890 C   0  0  1  0  0  0  0  0  0  0  0  0
    1.0228   -1.4056    0.8439 O   0  0  0  0  0  0  0  0  0  0  0  0
    2.2084   -1.2060    1.4559 C   0  0  0  0  0  0  0  0  0  0  0  0
    2.9087   -2.4004    1.6541 C   0  0  0  0  0  0  0  0  0  0  0  0
    4.2306   -2.5434    1.2245 C   0  0  0  0  0  0  0  0  0  0  0  0
    4.8944   -1.4767    0.6149 C   0  0  0  0  0  0  0  0  0  0  0  0
    5.5274   -1.6392   -0.7054 C   0  0  0  0  0  0  0  0  0  0  0  0
    5.5312   -0.6422   -1.5982 C   0  0  0  0  0  0  0  0  0  0  0  0
    6.0327    0.5924   -0.9787 C   0  0  0  0  0  0  0  0  0  0  0  0
    7.3498    0.5199   -0.5407 C   0  0  0  0  0  0  0  0  0  0  0  0
    7.8828    1.5606    0.2077 C   0  0  0  0  0  0  0  0  0  0  0  0
    8.9514    1.2673    1.0591 O   0  0  0  0  0  0  0  0  0  0  0  0
    7.0168    2.6077    0.4903 C   0  0  0  0  0  0  0  0  0  0  0  0
    6.0185    2.8813   -0.4285 C   0  0  0  0  0  0  0  0  0  0  0  0
    5.5968    4.1692   -0.7189 O   0  0  0  0  0  0  0  0  0  0  0  0
    5.5199    1.8379   -1.2023 C   0  0  0  0  0  0  0  0  0  0  0  0
    4.3830   -0.2619    1.0648 C   0  0  0  0  0  0  0  0  0  0  0  0
    3.0448   -0.1262    1.4457 C   0  0  0  0  0  0  0  0  0  0  0  0
    0.1277   -0.4827   -1.2284 C   0  0  1  0  0  0  0  0  0  0  0  0
    1.6166   -0.5746   -1.2999 O   0  0  0  0  0  0  0  0  0  0  0  0
   -0.0562   -2.1712   -1.1060 C   0  0  2  0  0  0  0  0  0  0  0  0
    0.2992   -2.3541   -2.5481 O   0  0  0  0  0  0  0  0  0  0  0  0
   -1.7198   -2.0503   -1.4625 C   0  0  1  0  0  0  0  0  0  0  0  0
   -2.0259   -3.0782   -0.4179 O   0  0  0  0  0  0  0  0  0  0  0  0
   -6.5025    0.0210   -0.8043 C   0  0  0  0  0  0  0  0  0  0  0  0
   -6.2672    1.3773   -1.0109 C   0  0  0  0  0  0  0  0  0  0  0  0
   -6.6885    2.3575   -0.1448 C   0  0  0  0  0  0  0  0  0  0  0  0
   -6.4571    3.6932   -0.4330 O   0  0  0  0  0  0  0  0  0  0  0  0
   -7.5692    2.0307    0.8560 C   0  0  0  0  0  0  0  0  0  0  0  0
   -8.5184    2.9603    1.2955 O   0  0  0  0  0  0  0  0  0  0  0  0
   -7.6125    0.7037    1.2478 C   0  0  0  0  0  0  0  0  0  0  0  0
   -8.2972    0.4167    2.4135 O   0  0  0  0  0  0  0  0  0  0  0  0
   -7.3457   -0.2514    0.2695 C   0  0  0  0  0  0  0  0  0  0  0  0
  1  2  2  0
  2  3  1  0
  3  4  1  0
  5  4  1  1
  5  6  1  0
  6  7  1  0
  7  8  1  1
  8  9  1  0
  9 10  2  0
 10 11  1  0
 11 12  2  0
 12 13  1  0
 13 14  2  0
 14 15  1  0
 15 16  2  0
 16 17  1  0
 17 18  1  0
 17 19  2  0
 19 20  1  0
 20 21  1  0
 20 22  2  0
 12 23  1  0
 23 24  2  0
  7 25  1  0
 25 26  1  1
 25 27  1  0
 27 28  1  6
 27 29  1  0
 29 30  1  1
  2 31  1  0
 31 32  2  0
 32 33  1  0
 33 34  1  0
 33 35  2  0
 35 36  1  0
 35 37  1  0
 37 38  1  0
 37 39  2  0
 29  5  1  0
 39 31  1  0
 24  9  1  0
 22 15  1  0
M  END
>  <zinc_id>  (1) 
ZINC000100823227

>  <smiles>  (1) 
O=C(OC[C@H]1O[C@@H](Oc2ccc(/C=C\c3cc(O)cc(O)c3)cc2)[C@@H](O)[C@H](O)[C@H]1O)c1cc(O)c(O)c(O)c1

$$$$
