REMARK  Name = 
REMARK  4 active torsions:
REMARK  status: ('A' for Active; 'I' for Inactive)
REMARK    1  A    between atoms: S_2  and  O_5
REMARK    2  A    between atoms: O_5  and  C_6
REMARK    3  A    between atoms: C_11  and  C_12
REMARK    4  A    between atoms: C_13  and  C_14
REMARK                            x       y       z     vdW  Elec       q    Type
REMARK                         _______ _______ _______ _____ _____    ______ ____
ROOT
ATOM      6  C   UNL     1       2.651   0.396  -0.323  0.00  0.00    +0.000 A 
ATOM      7  C   UNL     1       3.028  -0.921  -0.548  0.00  0.00    +0.000 A 
ATOM      8  C   UNL     1       2.093  -1.946  -0.602  0.00  0.00    +0.000 A 
ATOM      9  O   UNL     1       2.543  -3.244  -0.840  0.00  0.00    +0.000 OA
ATOM     10  C   UNL     1       0.778  -1.678  -0.248  0.00  0.00    +0.000 A 
ATOM     11  C   UNL     1       0.387  -0.349  -0.336  0.00  0.00    +0.000 A 
ATOM     21  C   UNL     1       1.322   0.588   0.030  0.00  0.00    +0.000 A 
ENDROOT
BRANCH  11  12
ATOM     12  C   UNL     1      -1.008  -0.026  -0.622  0.00  0.00    +0.000 C 
ATOM     13  C   UNL     1      -1.831   0.503   0.261  0.00  0.00    +0.000 C 
BRANCH  13  14
ATOM     14  C   UNL     1      -3.239   0.135   0.220  0.00  0.00    +0.000 A 
ATOM     15  C   UNL     1      -3.878   0.080  -1.000  0.00  0.00    +0.000 A 
ATOM     16  C   UNL     1      -5.202  -0.336  -1.029  0.00  0.00    +0.000 A 
ATOM     17  C   UNL     1      -6.022  -0.010   0.017  0.00  0.00    +0.000 A 
ATOM     18  O   UNL     1      -7.356  -0.428  -0.024  0.00  0.00    +0.000 OA
ATOM     19  C   UNL     1      -5.409   0.292   1.227  0.00  0.00    +0.000 A 
ATOM     20  C   UNL     1      -4.043   0.154   1.351  0.00  0.00    +0.000 A 
ENDBRANCH  13  14
ENDBRANCH  11  12
BRANCH   6   5
ATOM      5  O   UNL     1       3.485   1.452  -0.692  0.00  0.00    +0.000 OA
BRANCH   5   2
ATOM      1  O   UNL     1       5.965   2.397  -0.750  0.00  0.00    +0.000 OA
ATOM      2  S   UNL     1       5.097   1.361  -0.122  0.00  0.00    +0.000 S 
ATOM      3  O   UNL     1       5.608  -0.004  -0.443  0.00  0.00    +0.000 OA
ATOM      4  O   UNL     1       5.034   1.582   1.535  0.00  0.00    +0.000 OA
ENDBRANCH   5   2
ENDBRANCH   6   5
TORSDOF 4
