
     RDKit          3D

 28 30  0  0  0  0  0  0  0  0999 V2000
   -5.2109    1.6010    2.5283 O   0  0  0  0  0  0  0  0  0  0  0  0
   -5.5378    0.6398    1.9415 C   0  0  0  0  0  0  0  0  0  0  0  0
   -5.3657    0.7027    0.3117 C   0  0  1  0  0  0  0  0  0  0  0  0
   -4.0983    1.4682    0.3825 O   0  0  0  0  0  0  0  0  0  0  0  0
   -3.3186    1.2279   -0.8916 C   0  0  1  0  0  0  0  0  0  0  0  0
   -2.5842   -0.0344   -0.4146 O   0  0  0  0  0  0  0  0  0  0  0  0
   -1.2385    0.1438   -0.4175 C   0  0  0  0  0  0  0  0  0  0  0  0
   -0.7235   -0.0423   -1.6997 C   0  0  0  0  0  0  0  0  0  0  0  0
    0.5453    0.3213   -2.0202 C   0  0  0  0  0  0  0  0  0  0  0  0
    1.4947    0.2324   -1.0021 C   0  0  0  0  0  0  0  0  0  0  0  0
    2.5138   -0.7005   -1.3918 C   0  0  0  0  0  0  0  0  0  0  0  0
    3.6905   -0.1004   -1.6039 C   0  0  0  0  0  0  0  0  0  0  0  0
    4.2488   -0.1653   -0.2384 C   0  0  0  0  0  0  0  0  0  0  0  0
    4.7995   -1.4025    0.0967 C   0  0  0  0  0  0  0  0  0  0  0  0
    6.0209   -1.5240    0.7465 C   0  0  0  0  0  0  0  0  0  0  0  0
    6.8218   -2.6689    0.6423 O   0  0  0  0  0  0  0  0  0  0  0  0
    6.6437   -0.3433    1.1391 C   0  0  0  0  0  0  0  0  0  0  0  0
    5.9266    0.8441    1.0683 C   0  0  0  0  0  0  0  0  0  0  0  0
    6.6214    2.0155    1.3479 O   0  0  0  0  0  0  0  0  0  0  0  0
    4.7430    0.9456    0.3976 C   0  0  0  0  0  0  0  0  0  0  0  0
    0.9848    0.5228    0.2496 C   0  0  0  0  0  0  0  0  0  0  0  0
   -0.3884    0.7038    0.4397 C   0  0  0  0  0  0  0  0  0  0  0  0
   -4.5673    0.5327   -1.8335 C   0  0  1  0  0  0  0  0  0  0  0  0
   -3.5848    0.1095   -2.9034 O   0  0  0  0  0  0  0  0  0  0  0  0
   -4.8176   -1.0350   -1.2355 C   0  0  1  0  0  0  0  0  0  0  0  0
   -3.5005   -1.6819   -1.5322 O   0  0  0  0  0  0  0  0  0  0  0  0
   -4.4747   -0.7525    0.4028 C   0  0  2  0  0  0  0  0  0  0  0  0
   -5.6440   -1.5602    0.8681 O   0  0  0  0  0  0  0  0  0  0  0  0
  1  2  1  0
  3  2  1  1
  3  4  1  0
  4  5  1  0
  5  6  1  1
  6  7  1  0
  7  8  2  0
  8  9  1  0
  9 10  2  0
 10 11  1  0
 11 12  2  0
 12 13  1  0
 13 14  2  0
 14 15  1  0
 15 16  1  0
 15 17  2  0
 17 18  1  0
 18 19  1  0
 18 20  2  0
 10 21  1  0
 21 22  2  0
  5 23  1  0
 23 24  1  6
 23 25  1  0
 25 26  1  6
 25 27  1  0
 27 28  1  1
 27  3  1  0
 22  7  1  0
 20 13  1  0
M  END
>  <zinc_id>  (1) 
ZINC000015112536

>  <smiles>  (1) 
OC[C@H]1O[C@@H](Oc2ccc(/C=C\c3cc(O)cc(O)c3)cc2)[C@@H](O)[C@@H](O)[C@@H]1O

$$$$
