REMARK  Name = 
REMARK  5 active torsions:
REMARK  status: ('A' for Active; 'I' for Inactive)
REMARK    1  A    between atoms: C_2  and  C_3
REMARK    2  A    between atoms: C_5  and  O_6
REMARK    3  A    between atoms: O_6  and  C_7
REMARK    4  A    between atoms: C_10  and  C_11
REMARK    5  A    between atoms: C_12  and  C_13
REMARK                            x       y       z     vdW  Elec       q    Type
REMARK                         _______ _______ _______ _____ _____    ______ ____
ROOT
ATOM      7  C   UNL     1      -0.628  -0.825  -0.369  0.00  0.00    +0.000 A 
ATOM      8  C   UNL     1       0.353  -1.161   0.554  0.00  0.00    +0.000 A 
ATOM      9  C   UNL     1       1.389  -0.270   0.829  0.00  0.00    +0.000 A 
ATOM     10  C   UNL     1       1.312   1.014   0.402  0.00  0.00    +0.000 A 
ATOM     21  C   UNL     1       0.108   1.403  -0.184  0.00  0.00    +0.000 A 
ATOM     22  C   UNL     1      -0.662   0.472  -0.863  0.00  0.00    +0.000 A 
ENDROOT
BRANCH  10  11
ATOM     11  C   UNL     1       2.363   1.996   0.301  0.00  0.00    +0.000 C 
ATOM     12  C   UNL     1       3.116   1.747  -0.784  0.00  0.00    +0.000 C 
BRANCH  12  13
ATOM     13  C   UNL     1       4.072   0.700  -0.382  0.00  0.00    +0.000 A 
ATOM     14  C   UNL     1       4.144  -0.538  -0.952  0.00  0.00    +0.000 A 
ATOM     15  C   UNL     1       5.220  -1.333  -0.574  0.00  0.00    +0.000 A 
ATOM     16  O   UNL     1       5.159  -2.726  -0.608  0.00  0.00    +0.000 OA
ATOM     17  C   UNL     1       6.377  -0.739  -0.142  0.00  0.00    +0.000 A 
ATOM     18  C   UNL     1       6.462   0.623   0.106  0.00  0.00    +0.000 A 
ATOM     19  O   UNL     1       7.679   1.311   0.050  0.00  0.00    +0.000 OA
ATOM     20  C   UNL     1       5.238   1.278   0.111  0.00  0.00    +0.000 A 
ENDBRANCH  12  13
ENDBRANCH  10  11
BRANCH   7   6
ATOM      6  O   UNL     1      -1.808  -1.539  -0.546  0.00  0.00    +0.000 OA
BRANCH   6   5
ATOM      3  C   UNL     1      -3.539   0.893   1.340  0.00  0.00    +0.000 C 
ATOM      4  O   UNL     1      -3.013   0.284   0.029  0.00  0.00    +0.000 OA
ATOM      5  C   UNL     1      -2.892  -1.180   0.548  0.00  0.00    +0.000 C 
ATOM     23  C   UNL     1      -4.219  -1.724  -0.480  0.00  0.00    +0.000 C 
ATOM     24  O   UNL     1      -4.726  -2.609   0.628  0.00  0.00    +0.000 OA
ATOM     25  C   UNL     1      -5.203  -0.351  -0.083  0.00  0.00    +0.000 C 
ATOM     26  O   UNL     1      -6.454  -1.148   0.227  0.00  0.00    +0.000 OA
ATOM     27  C   UNL     1      -4.712  -0.389   1.577  0.00  0.00    +0.000 C 
ATOM     28  O   UNL     1      -5.829   0.540   1.983  0.00  0.00    +0.000 OA
BRANCH   3   2
ATOM      1  O   UNL     1      -4.712   2.376   0.737  0.00  0.00    +0.000 OA
ATOM      2  C   UNL     1      -4.597   1.894   0.526  0.00  0.00    +0.000 C 
ENDBRANCH   3   2
ENDBRANCH   6   5
ENDBRANCH   7   6
TORSDOF 5
