REMARK  Name = 
REMARK  8 active torsions:
REMARK  status: ('A' for Active; 'I' for Inactive)
REMARK    1  A    between atoms: C_2  and  O_3
REMARK    2  A    between atoms: C_2  and  C_31
REMARK    3  A    between atoms: O_3  and  C_4
REMARK    4  A    between atoms: C_4  and  C_5
REMARK    5  A    between atoms: C_7  and  O_8
REMARK    6  A    between atoms: O_8  and  C_9
REMARK    7  A    between atoms: C_12  and  C_13
REMARK    8  A    between atoms: C_14  and  C_15
REMARK                            x       y       z     vdW  Elec       q    Type
REMARK                         _______ _______ _______ _____ _____    ______ ____
ROOT
ATOM      5  C   UNL     1      -1.788  -0.342  -0.684  0.00  0.00    +0.000 C 
ATOM      6  O   UNL     1      -0.418   0.284  -0.746  0.00  0.00    +0.000 OA
ATOM      7  C   UNL     1      -0.722   1.725  -0.392  0.00  0.00    +0.000 C 
ATOM     25  C   UNL     1      -0.085   1.270   1.141  0.00  0.00    +0.000 C 
ATOM     26  O   UNL     1      -0.174   2.672   1.649  0.00  0.00    +0.000 OA
ATOM     27  C   UNL     1      -1.609   0.912   1.808  0.00  0.00    +0.000 C 
ATOM     28  O   UNL     1      -2.447   1.873   1.018  0.00  0.00    +0.000 OA
ATOM     29  C   UNL     1      -1.968  -0.546   1.009  0.00  0.00    +0.000 C 
ATOM     30  O   UNL     1      -0.562  -1.090   1.197  0.00  0.00    +0.000 OA
ENDROOT
BRANCH   5   4
ATOM      4  C   UNL     1      -2.712   0.999  -0.904  0.00  0.00    +0.000 C 
BRANCH   4   3
ATOM      3  O   UNL     1      -3.925   0.608  -1.438  0.00  0.00    +0.000 OA
BRANCH   3   2
ATOM      1  O   UNL     1      -4.188  -0.691  -1.169  0.00  0.00    +0.000 OA
ATOM      2  C   UNL     1      -4.349  -0.655  -1.270  0.00  0.00    +0.000 C 
BRANCH   2  31
ATOM     31  C   UNL     1      -5.677  -1.180  -1.061  0.00  0.00    +0.000 A 
ATOM     32  C   UNL     1      -5.907  -1.851   0.134  0.00  0.00    +0.000 A 
ATOM     33  C   UNL     1      -7.189  -1.905   0.667  0.00  0.00    +0.000 A 
ATOM     34  O   UNL     1      -7.473  -2.566   1.841  0.00  0.00    +0.000 OA
ATOM     35  C   UNL     1      -8.161  -1.072   0.125  0.00  0.00    +0.000 A 
ATOM     36  O   UNL     1      -9.112  -0.447   0.937  0.00  0.00    +0.000 OA
ATOM     37  C   UNL     1      -7.981  -0.607  -1.172  0.00  0.00    +0.000 A 
ATOM     38  O   UNL     1      -8.991   0.117  -1.814  0.00  0.00    +0.000 OA
ATOM     39  C   UNL     1      -6.779  -0.894  -1.811  0.00  0.00    +0.000 A 
ENDBRANCH   2  31
ENDBRANCH   3   2
ENDBRANCH   4   3
ENDBRANCH   5   4
BRANCH   7   8
ATOM      8  O   UNL     1       0.624   2.239  -0.924  0.00  0.00    +0.000 OA
BRANCH   8   9
ATOM      9  C   UNL     1       1.793   1.746  -0.558  0.00  0.00    +0.000 A 
ATOM     10  C   UNL     1       2.204   0.502  -0.195  0.00  0.00    +0.000 A 
ATOM     11  C   UNL     1       3.310   0.454   0.648  0.00  0.00    +0.000 A 
ATOM     12  C   UNL     1       4.314   1.381   0.428  0.00  0.00    +0.000 A 
ATOM     23  C   UNL     1       4.123   2.386  -0.512  0.00  0.00    +0.000 A 
ATOM     24  C   UNL     1       2.852   2.510  -1.051  0.00  0.00    +0.000 A 
BRANCH  12  13
ATOM     13  C   UNL     1       5.459   1.534   1.327  0.00  0.00    +0.000 C 
ATOM     14  C   UNL     1       6.630   1.458   0.689  0.00  0.00    +0.000 C 
BRANCH  14  15
ATOM     15  C   UNL     1       6.854   0.128   0.105  0.00  0.00    +0.000 A 
ATOM     16  C   UNL     1       7.252  -0.075  -1.187  0.00  0.00    +0.000 A 
ATOM     17  C   UNL     1       8.019  -1.198  -1.447  0.00  0.00    +0.000 A 
ATOM     18  O   UNL     1       8.681  -1.308  -2.673  0.00  0.00    +0.000 OA
ATOM     19  C   UNL     1       8.259  -2.140  -0.470  0.00  0.00    +0.000 A 
ATOM     20  C   UNL     1       7.604  -2.049   0.750  0.00  0.00    +0.000 A 
ATOM     21  O   UNL     1       7.526  -3.181   1.552  0.00  0.00    +0.000 OA
ATOM     22  C   UNL     1       6.714  -1.000   0.904  0.00  0.00    +0.000 A 
ENDBRANCH  14  15
ENDBRANCH  12  13
ENDBRANCH   8   9
ENDBRANCH   7   8
TORSDOF 8
