
     RDKit          3D

 39 42  0  0  0  0  0  0  0  0999 V2000
    2.9204    0.9410    0.5294 O   0  0  0  0  0  0  0  0  0  0  0  0
    3.0680    0.8912    0.5492 C   0  0  0  0  0  0  0  0  0  0  0  0
    2.6757   -0.3649    0.7634 O   0  0  0  0  0  0  0  0  0  0  0  0
    2.3806   -1.1916   -0.4753 C   0  0  1  0  0  0  0  0  0  0  0  0
    2.6908   -2.6048    0.4134 C   0  0  2  0  0  0  0  0  0  0  0  0
    4.1440   -2.5186    0.0526 O   0  0  0  0  0  0  0  0  0  0  0  0
    2.4025   -3.6241   -0.9163 C   0  0  1  0  0  0  0  0  0  0  0  0
    2.5637   -4.8302   -0.0399 O   0  0  0  0  0  0  0  0  0  0  0  0
    0.6889   -3.6900   -0.7742 C   0  0  1  0  0  0  0  0  0  0  0  0
    0.5821   -3.3707    0.8350 C   0  0  0  0  0  0  0  0  0  0  0  0
    0.7452   -4.5849    1.4661 O   0  0  0  0  0  0  0  0  0  0  0  0
    0.5245   -2.2943   -1.3152 O   0  0  0  0  0  0  0  0  0  0  0  0
    0.7056   -1.3791   -0.1245 C   0  0  2  0  0  0  0  0  0  0  0  0
    0.3641   -0.1451   -1.0011 O   0  0  0  0  0  0  0  0  0  0  0  0
   -1.0123    0.0718   -0.8792 C   0  0  0  0  0  0  0  0  0  0  0  0
   -1.9032   -0.3135   -1.8707 C   0  0  0  0  0  0  0  0  0  0  0  0
   -3.1497   -0.8529   -1.5699 C   0  0  0  0  0  0  0  0  0  0  0  0
   -3.5250   -0.9288   -0.2528 C   0  0  0  0  0  0  0  0  0  0  0  0
   -4.4927   -1.9026    0.2629 C   0  0  0  0  0  0  0  0  0  0  0  0
   -5.3126   -1.4049    1.1924 C   0  0  0  0  0  0  0  0  0  0  0  0
   -5.9693   -0.1472    0.8078 C   0  0  0  0  0  0  0  0  0  0  0  0
   -5.9306    0.9760    1.6090 C   0  0  0  0  0  0  0  0  0  0  0  0
   -6.4840    2.1318    1.0865 C   0  0  0  0  0  0  0  0  0  0  0  0
   -6.1885    3.3845    1.6047 O   0  0  0  0  0  0  0  0  0  0  0  0
   -7.6176    1.9557    0.3025 C   0  0  0  0  0  0  0  0  0  0  0  0
   -7.7708    0.7899   -0.4249 C   0  0  0  0  0  0  0  0  0  0  0  0
   -8.9514    0.5527   -1.1215 O   0  0  0  0  0  0  0  0  0  0  0  0
   -6.7644   -0.1574   -0.3079 C   0  0  0  0  0  0  0  0  0  0  0  0
   -2.9411    0.0058    0.5959 C   0  0  0  0  0  0  0  0  0  0  0  0
   -1.6101    0.3271    0.3459 C   0  0  0  0  0  0  0  0  0  0  0  0
    4.2657    1.6618    0.5886 C   0  0  0  0  0  0  0  0  0  0  0  0
    5.4748    1.3468    1.1189 C   0  0  0  0  0  0  0  0  0  0  0  0
    6.6033    2.0371    0.8311 C   0  0  0  0  0  0  0  0  0  0  0  0
    7.6991    1.8900    1.6837 O   0  0  0  0  0  0  0  0  0  0  0  0
    6.5585    3.0262   -0.1357 C   0  0  0  0  0  0  0  0  0  0  0  0
    7.6391    3.8798   -0.2903 O   0  0  0  0  0  0  0  0  0  0  0  0
    5.3970    3.3392   -0.7784 C   0  0  0  0  0  0  0  0  0  0  0  0
    5.2650    4.3901   -1.6880 O   0  0  0  0  0  0  0  0  0  0  0  0
    4.2646    2.7068   -0.3320 C   0  0  0  0  0  0  0  0  0  0  0  0
  1  2  2  0
  2  3  1  0
  4  3  1  1
  4  5  1  0
  5  6  1  6
  5  7  1  0
  7  8  1  1
  7  9  1  0
  9 10  1  1
 10 11  1  0
  9 12  1  0
 12 13  1  0
 13 14  1  6
 14 15  1  0
 15 16  2  0
 16 17  1  0
 17 18  2  0
 18 19  1  0
 19 20  2  0
 20 21  1  0
 21 22  2  0
 22 23  1  0
 23 24  1  0
 23 25  2  0
 25 26  1  0
 26 27  1  0
 26 28  2  0
 18 29  1  0
 29 30  2  0
  2 31  1  0
 31 32  2  0
 32 33  1  0
 33 34  1  0
 33 35  2  0
 35 36  1  0
 35 37  1  0
 37 38  1  0
 37 39  2  0
 13  4  1  0
 30 15  1  0
 39 31  1  0
 28 21  1  0
M  END
>  <zinc_id>  (1) 
ZINC000230097119

>  <smiles>  (1) 
O=C(O[C@@H]1[C@@H](Oc2ccc(/C=C\c3cc(O)cc(O)c3)cc2)O[C@H](CO)[C@H](O)[C@H]1O)c1cc(O)c(O)c(O)c1

$$$$
