REMARK  Name = 
REMARK  8 active torsions:
REMARK  status: ('A' for Active; 'I' for Inactive)
REMARK    1  A    between atoms: C_2  and  O_3
REMARK    2  A    between atoms: C_2  and  C_31
REMARK    3  A    between atoms: O_3  and  C_4
REMARK    4  A    between atoms: C_5  and  O_6
REMARK    5  A    between atoms: O_6  and  C_7
REMARK    6  A    between atoms: C_10  and  C_11
REMARK    7  A    between atoms: C_12  and  C_13
REMARK    8  A    between atoms: C_24  and  C_25
REMARK                            x       y       z     vdW  Elec       q    Type
REMARK                         _______ _______ _______ _____ _____    ______ ____
ROOT
ATOM      4  C   UNL     1      -2.054   1.688   0.634  0.00  0.00    +0.000 C 
ATOM      5  C   UNL     1      -0.590   1.475   1.544  0.00  0.00    +0.000 C 
ATOM     23  O   UNL     1       0.139   2.508   0.688  0.00  0.00    +0.000 OA
ATOM     24  C   UNL     1       0.645   1.673  -0.449  0.00  0.00    +0.000 C 
ATOM     27  C   UNL     1      -0.665   1.972  -1.532  0.00  0.00    +0.000 C 
ATOM     28  O   UNL     1      -1.249   3.186  -0.888  0.00  0.00    +0.000 OA
ATOM     29  C   UNL     1      -1.603   0.784  -0.733  0.00  0.00    +0.000 C 
ATOM     30  O   UNL     1      -2.834   1.224  -1.466  0.00  0.00    +0.000 OA
ENDROOT
BRANCH  24  25
ATOM     25  C   UNL     1       1.574   2.901  -1.018  0.00  0.00    +0.000 C 
ATOM     26  O   UNL     1       2.644   2.829  -0.108  0.00  0.00    +0.000 OA
ENDBRANCH  24  25
BRANCH   4   3
ATOM      3  O   UNL     1      -2.519   0.461   1.365  0.00  0.00    +0.000 OA
BRANCH   3   2
ATOM      1  O   UNL     1      -3.377  -0.303   1.005  0.00  0.00    +0.000 OA
ATOM      2  C   UNL     1      -3.505  -0.244   1.296  0.00  0.00    +0.000 C 
BRANCH   2  31
ATOM     31  C   UNL     1      -4.904  -0.506   1.408  0.00  0.00    +0.000 A 
ATOM     32  C   UNL     1      -5.897   0.469   1.464  0.00  0.00    +0.000 A 
ATOM     33  C   UNL     1      -6.986   0.445   0.589  0.00  0.00    +0.000 A 
ATOM     34  O   UNL     1      -7.560   1.656   0.236  0.00  0.00    +0.000 OA
ATOM     35  C   UNL     1      -7.344  -0.743   0.003  0.00  0.00    +0.000 A 
ATOM     36  O   UNL     1      -8.126  -0.701  -1.139  0.00  0.00    +0.000 OA
ATOM     37  C   UNL     1      -6.469  -1.823   0.064  0.00  0.00    +0.000 A 
ATOM     38  O   UNL     1      -6.870  -3.093  -0.270  0.00  0.00    +0.000 OA
ATOM     39  C   UNL     1      -5.308  -1.707   0.815  0.00  0.00    +0.000 A 
ENDBRANCH   2  31
ENDBRANCH   3   2
ENDBRANCH   4   3
BRANCH   5   6
ATOM      6  O   UNL     1      -0.215   0.209   0.809  0.00  0.00    +0.000 OA
BRANCH   6   7
ATOM      7  C   UNL     1       0.509  -0.782   0.792  0.00  0.00    +0.000 A 
ATOM      8  C   UNL     1       1.655  -1.060   1.530  0.00  0.00    +0.000 A 
ATOM      9  C   UNL     1       2.746  -1.653   0.907  0.00  0.00    +0.000 A 
ATOM     10  C   UNL     1       2.773  -1.780  -0.474  0.00  0.00    +0.000 A 
ATOM     21  C   UNL     1       1.537  -1.951  -1.089  0.00  0.00    +0.000 A 
ATOM     22  C   UNL     1       0.416  -1.613  -0.334  0.00  0.00    +0.000 A 
BRANCH  10  11
ATOM     11  C   UNL     1       3.830  -2.622  -1.031  0.00  0.00    +0.000 C 
ATOM     12  C   UNL     1       4.795  -1.901  -1.585  0.00  0.00    +0.000 C 
BRANCH  12  13
ATOM     13  C   UNL     1       5.563  -1.196  -0.548  0.00  0.00    +0.000 A 
ATOM     14  C   UNL     1       6.871  -1.645  -0.409  0.00  0.00    +0.000 A 
ATOM     15  C   UNL     1       7.871  -0.826   0.058  0.00  0.00    +0.000 A 
ATOM     16  O   UNL     1       9.189  -1.237  -0.142  0.00  0.00    +0.000 OA
ATOM     17  C   UNL     1       7.604   0.511   0.179  0.00  0.00    +0.000 A 
ATOM     18  C   UNL     1       6.292   0.965   0.159  0.00  0.00    +0.000 A 
ATOM     19  O   UNL     1       6.103   2.302   0.459  0.00  0.00    +0.000 OA
ATOM     20  C   UNL     1       5.319   0.129  -0.321  0.00  0.00    +0.000 A 
ENDBRANCH  12  13
ENDBRANCH  10  11
ENDBRANCH   6   7
ENDBRANCH   5   6
TORSDOF 8
