
     RDKit          3D

 39 42  0  0  0  0  0  0  0  0999 V2000
   -3.3957    0.0122   -0.8883 O   0  0  0  0  0  0  0  0  0  0  0  0
   -3.5052   -0.0412   -1.0495 C   0  0  0  0  0  0  0  0  0  0  0  0
   -3.0288   -1.0829   -0.4469 O   0  0  0  0  0  0  0  0  0  0  0  0
   -1.8130   -1.0562    0.4710 C   0  0  2  0  0  0  0  0  0  0  0  0
   -0.5786   -1.8548   -0.5417 C   0  0  1  0  0  0  0  0  0  0  0  0
    0.3715   -1.9433    0.6767 O   0  0  0  0  0  0  0  0  0  0  0  0
    1.6775   -1.8731    0.5324 C   0  0  0  0  0  0  0  0  0  0  0  0
    2.3980   -2.9512    1.0383 C   0  0  0  0  0  0  0  0  0  0  0  0
    3.7808   -2.8213    1.1147 C   0  0  0  0  0  0  0  0  0  0  0  0
    4.3928   -1.6241    0.7419 C   0  0  0  0  0  0  0  0  0  0  0  0
    5.4548   -1.5885   -0.2599 C   0  0  0  0  0  0  0  0  0  0  0  0
    6.3686   -0.6749   -0.2310 C   0  0  0  0  0  0  0  0  0  0  0  0
    6.0924    0.6549    0.3376 C   0  0  0  0  0  0  0  0  0  0  0  0
    5.3893    1.4893   -0.5327 C   0  0  0  0  0  0  0  0  0  0  0  0
    5.2761    2.8288   -0.2196 C   0  0  0  0  0  0  0  0  0  0  0  0
    4.0711    3.5177   -0.3483 O   0  0  0  0  0  0  0  0  0  0  0  0
    6.4561    3.4365    0.1941 C   0  0  0  0  0  0  0  0  0  0  0  0
    7.4883    2.6330    0.6744 C   0  0  0  0  0  0  0  0  0  0  0  0
    8.7924    3.1431    0.7629 O   0  0  0  0  0  0  0  0  0  0  0  0
    7.2260    1.2788    0.8563 C   0  0  0  0  0  0  0  0  0  0  0  0
    3.5729   -0.5530    1.0661 C   0  0  0  0  0  0  0  0  0  0  0  0
    2.1918   -0.6541    0.9608 C   0  0  0  0  0  0  0  0  0  0  0  0
   -1.0035   -3.3673   -0.4913 O   0  0  0  0  0  0  0  0  0  0  0  0
   -2.4568   -3.2213   -0.9964 C   0  0  2  0  0  0  0  0  0  0  0  0
   -1.9299   -1.8625   -0.7791 C   0  0  0  0  0  0  0  0  0  0  0  0
   -1.3870   -2.5807    0.4229 O   0  0  0  0  0  0  0  0  0  0  0  0
   -3.1754   -3.3904    0.6170 C   0  0  2  0  0  0  0  0  0  0  0  0
   -4.2806   -2.3994    0.5109 O   0  0  0  0  0  0  0  0  0  0  0  0
   -2.0724   -2.4028    1.4971 C   0  0  2  0  0  0  0  0  0  0  0  0
   -3.0670   -1.6223    2.3176 O   0  0  0  0  0  0  0  0  0  0  0  0
   -4.5733    0.7179   -1.2241 C   0  0  0  0  0  0  0  0  0  0  0  0
   -4.1374    1.9390   -1.6262 C   0  0  0  0  0  0  0  0  0  0  0  0
   -4.8145    3.0529   -1.1431 C   0  0  0  0  0  0  0  0  0  0  0  0
   -4.3518    4.2847   -1.5034 O   0  0  0  0  0  0  0  0  0  0  0  0
   -5.8473    2.9101   -0.2206 C   0  0  0  0  0  0  0  0  0  0  0  0
   -6.6352    3.9737    0.1195 O   0  0  0  0  0  0  0  0  0  0  0  0
   -6.2026    1.6350    0.1994 C   0  0  0  0  0  0  0  0  0  0  0  0
   -6.9507    1.4637    1.3303 O   0  0  0  0  0  0  0  0  0  0  0  0
   -5.7935    0.5942   -0.6393 C   0  0  0  0  0  0  0  0  0  0  0  0
  1  2  2  0
  2  3  1  0
  4  3  1  6
  4  5  1  0
  5  6  1  1
  6  7  1  0
  7  8  2  0
  8  9  1  0
  9 10  2  0
 10 11  1  0
 11 12  2  0
 12 13  1  0
 13 14  2  0
 14 15  1  0
 15 16  1  0
 15 17  2  0
 17 18  1  0
 18 19  1  0
 18 20  2  0
 10 21  1  0
 21 22  2  0
  5 23  1  0
 23 24  1  0
 24 25  1  1
 25 26  1  0
 24 27  1  0
 27 28  1  6
 27 29  1  0
 29 30  1  1
  2 31  1  0
 31 32  2  0
 32 33  1  0
 33 34  1  0
 33 35  2  0
 35 36  1  0
 35 37  1  0
 37 38  1  0
 37 39  2  0
 29  4  1  0
 39 31  1  0
 22  7  1  0
 20 13  1  0
M  END
>  <zinc_id>  (1) 
ZINC000230097106

>  <smiles>  (1) 
O=C(O[C@H]1[C@@H](O)[C@@H](O)[C@@H](CO)O[C@@H]1Oc1ccc(/C=C\c2cc(O)cc(O)c2)cc1)c1cc(O)c(O)c(O)c1

$$$$
