REMARK  Name = 
REMARK  8 active torsions:
REMARK  status: ('A' for Active; 'I' for Inactive)
REMARK    1  A    between atoms: C_2  and  O_3
REMARK    2  A    between atoms: C_2  and  C_31
REMARK    3  A    between atoms: O_3  and  C_4
REMARK    4  A    between atoms: C_9  and  C_10
REMARK    5  A    between atoms: C_13  and  O_14
REMARK    6  A    between atoms: O_14  and  C_15
REMARK    7  A    between atoms: C_18  and  C_19
REMARK    8  A    between atoms: C_20  and  C_21
REMARK                            x       y       z     vdW  Elec       q    Type
REMARK                         _______ _______ _______ _____ _____    ______ ____
ROOT
ATOM      4  C   UNL     1      -2.839   1.982  -0.883  0.00  0.00    +0.000 C 
ATOM      5  C   UNL     1      -3.692   3.314  -0.263  0.00  0.00    +0.000 C 
ATOM      6  O   UNL     1      -5.003   2.604  -0.422  0.00  0.00    +0.000 OA
ATOM      7  C   UNL     1      -3.629   2.888   1.376  0.00  0.00    +0.000 C 
ATOM      8  O   UNL     1      -4.201   4.218   1.758  0.00  0.00    +0.000 OA
ATOM      9  C   UNL     1      -2.045   3.460   1.696  0.00  0.00    +0.000 C 
ATOM     12  O   UNL     1      -1.397   2.269   1.048  0.00  0.00    +0.000 OA
ATOM     13  C   UNL     1      -1.313   2.654  -0.415  0.00  0.00    +0.000 C 
ENDROOT
BRANCH   9  10
ATOM     10  C   UNL     1      -1.938   4.523   0.451  0.00  0.00    +0.000 C 
ATOM     11  O   UNL     1      -1.475   5.686   1.013  0.00  0.00    +0.000 OA
ENDBRANCH   9  10
BRANCH   4   3
ATOM      3  O   UNL     1      -2.993   1.007   0.268  0.00  0.00    +0.000 OA
BRANCH   3   2
ATOM      1  O   UNL     1      -4.210   0.247  -0.363  0.00  0.00    +0.000 OA
ATOM      2  C   UNL     1      -3.966   0.104  -0.041  0.00  0.00    +0.000 C 
BRANCH   2  31
ATOM     31  C   UNL     1      -3.974  -1.340  -0.022  0.00  0.00    +0.000 A 
ATOM     32  C   UNL     1      -5.066  -1.930   0.573  0.00  0.00    +0.000 A 
ATOM     33  C   UNL     1      -4.963  -3.272   0.908  0.00  0.00    +0.000 A 
ATOM     34  O   UNL     1      -5.626  -3.811   1.995  0.00  0.00    +0.000 OA
ATOM     35  C   UNL     1      -4.045  -4.006   0.169  0.00  0.00    +0.000 A 
ATOM     36  O   UNL     1      -3.603  -5.241   0.652  0.00  0.00    +0.000 OA
ATOM     37  C   UNL     1      -3.203  -3.410  -0.762  0.00  0.00    +0.000 A 
ATOM     38  O   UNL     1      -2.514  -4.149  -1.700  0.00  0.00    +0.000 OA
ATOM     39  C   UNL     1      -3.360  -2.071  -1.026  0.00  0.00    +0.000 A 
ENDBRANCH   2  31
ENDBRANCH   3   2
ENDBRANCH   4   3
BRANCH  13  14
ATOM     14  O   UNL     1      -0.622   1.342  -0.813  0.00  0.00    +0.000 OA
BRANCH  14  15
ATOM     15  C   UNL     1       0.302   0.749  -0.040  0.00  0.00    +0.000 A 
ATOM     16  C   UNL     1       1.405   1.318   0.583  0.00  0.00    +0.000 A 
ATOM     17  C   UNL     1       2.689   0.815   0.374  0.00  0.00    +0.000 A 
ATOM     18  C   UNL     1       2.911  -0.276  -0.464  0.00  0.00    +0.000 A 
ATOM     29  C   UNL     1       1.800  -1.116  -0.512  0.00  0.00    +0.000 A 
ATOM     30  C   UNL     1       0.516  -0.593  -0.358  0.00  0.00    +0.000 A 
BRANCH  18  19
ATOM     19  C   UNL     1       3.825  -0.181  -1.619  0.00  0.00    +0.000 C 
ATOM     20  C   UNL     1       4.937   0.504  -1.343  0.00  0.00    +0.000 C 
BRANCH  20  21
ATOM     21  C   UNL     1       5.743  -0.084  -0.262  0.00  0.00    +0.000 A 
ATOM     22  C   UNL     1       6.970   0.512  -0.009  0.00  0.00    +0.000 A 
ATOM     23  C   UNL     1       8.117  -0.235   0.236  0.00  0.00    +0.000 A 
ATOM     24  O   UNL     1       9.366   0.337   0.340  0.00  0.00    +0.000 OA
ATOM     25  C   UNL     1       7.966  -1.581   0.494  0.00  0.00    +0.000 A 
ATOM     26  C   UNL     1       6.742  -2.203   0.407  0.00  0.00    +0.000 A 
ATOM     27  O   UNL     1       6.703  -3.585   0.414  0.00  0.00    +0.000 OA
ATOM     28  C   UNL     1       5.682  -1.450  -0.015  0.00  0.00    +0.000 A 
ENDBRANCH  20  21
ENDBRANCH  18  19
ENDBRANCH  14  15
ENDBRANCH  13  14
TORSDOF 8
