REMARK  Name = 
REMARK  8 active torsions:
REMARK  status: ('A' for Active; 'I' for Inactive)
REMARK    1  A    between atoms: C_2  and  O_3
REMARK    2  A    between atoms: C_2  and  C_31
REMARK    3  A    between atoms: O_3  and  C_4
REMARK    4  A    between atoms: C_4  and  C_5
REMARK    5  A    between atoms: C_7  and  O_8
REMARK    6  A    between atoms: O_8  and  C_9
REMARK    7  A    between atoms: C_12  and  C_13
REMARK    8  A    between atoms: C_14  and  C_15
REMARK                            x       y       z     vdW  Elec       q    Type
REMARK                         _______ _______ _______ _____ _____    ______ ____
ROOT
ATOM      5  C   UNL     1      -2.784  -1.323   0.563  0.00  0.00    +0.000 C 
ATOM      6  O   UNL     1      -1.473  -1.177   1.316  0.00  0.00    +0.000 OA
ATOM      7  C   UNL     1      -0.434  -0.610   0.336  0.00  0.00    +0.000 C 
ATOM     25  C   UNL     1      -0.411  -2.039  -0.708  0.00  0.00    +0.000 C 
ATOM     26  O   UNL     1       1.054  -2.316  -0.574  0.00  0.00    +0.000 OA
ATOM     27  C   UNL     1      -0.869  -3.061   0.599  0.00  0.00    +0.000 C 
ATOM     28  O   UNL     1      -0.669  -4.285  -0.262  0.00  0.00    +0.000 OA
ATOM     29  C   UNL     1      -2.554  -3.027   0.190  0.00  0.00    +0.000 C 
ATOM     30  O   UNL     1      -2.376  -2.887  -1.298  0.00  0.00    +0.000 OA
ENDROOT
BRANCH   5   4
ATOM      4  C   UNL     1      -2.317  -0.693  -0.910  0.00  0.00    +0.000 C 
BRANCH   4   3
ATOM      3  O   UNL     1      -3.326   0.275  -1.071  0.00  0.00    +0.000 OA
BRANCH   3   2
ATOM      1  O   UNL     1      -4.559  -0.777  -2.582  0.00  0.00    +0.000 OA
ATOM      2  C   UNL     1      -4.568  -0.017  -1.620  0.00  0.00    +0.000 C 
BRANCH   2  31
ATOM     31  C   UNL     1      -5.834   0.516  -1.101  0.00  0.00    +0.000 A 
ATOM     32  C   UNL     1      -5.921   1.883  -1.062  0.00  0.00    +0.000 A 
ATOM     33  C   UNL     1      -6.881   2.526  -0.331  0.00  0.00    +0.000 A 
ATOM     34  O   UNL     1      -7.128   3.852  -0.592  0.00  0.00    +0.000 OA
ATOM     35  C   UNL     1      -7.404   1.894   0.767  0.00  0.00    +0.000 A 
ATOM     36  O   UNL     1      -8.571   2.424   1.329  0.00  0.00    +0.000 OA
ATOM     37  C   UNL     1      -6.998   0.589   1.016  0.00  0.00    +0.000 A 
ATOM     38  O   UNL     1      -7.515  -0.024   2.151  0.00  0.00    +0.000 OA
ATOM     39  C   UNL     1      -6.334  -0.125   0.030  0.00  0.00    +0.000 A 
ENDBRANCH   2  31
ENDBRANCH   3   2
ENDBRANCH   4   3
ENDBRANCH   5   4
BRANCH   7   8
ATOM      8  O   UNL     1       0.687  -1.178   1.290  0.00  0.00    +0.000 OA
BRANCH   8   9
ATOM      9  C   UNL     1       1.928  -0.687   1.156  0.00  0.00    +0.000 A 
ATOM     10  C   UNL     1       2.920  -1.468   1.746  0.00  0.00    +0.000 A 
ATOM     11  C   UNL     1       4.194  -1.580   1.188  0.00  0.00    +0.000 A 
ATOM     12  C   UNL     1       4.497  -0.802   0.078  0.00  0.00    +0.000 A 
ATOM     23  C   UNL     1       3.666   0.297  -0.109  0.00  0.00    +0.000 A 
ATOM     24  C   UNL     1       2.401   0.376   0.464  0.00  0.00    +0.000 A 
BRANCH  12  13
ATOM     13  C   UNL     1       5.244  -1.368  -1.056  0.00  0.00    +0.000 C 
ATOM     14  C   UNL     1       5.731  -0.448  -1.891  0.00  0.00    +0.000 C 
BRANCH  14  15
ATOM     15  C   UNL     1       6.424   0.659  -1.212  0.00  0.00    +0.000 A 
ATOM     16  C   UNL     1       7.276   0.354  -0.167  0.00  0.00    +0.000 A 
ATOM     17  C   UNL     1       7.831   1.377   0.598  0.00  0.00    +0.000 A 
ATOM     18  O   UNL     1       9.105   1.110   1.109  0.00  0.00    +0.000 OA
ATOM     19  C   UNL     1       7.363   2.652   0.403  0.00  0.00    +0.000 A 
ATOM     20  C   UNL     1       6.533   2.953  -0.656  0.00  0.00    +0.000 A 
ATOM     21  O   UNL     1       5.854   4.178  -0.619  0.00  0.00    +0.000 OA
ATOM     22  C   UNL     1       6.220   1.976  -1.573  0.00  0.00    +0.000 A 
ENDBRANCH  14  15
ENDBRANCH  12  13
ENDBRANCH   8   9
ENDBRANCH   7   8
TORSDOF 8
