REMARK  Name = 
REMARK  8 active torsions:
REMARK  status: ('A' for Active; 'I' for Inactive)
REMARK    1  A    between atoms: C_2  and  O_3
REMARK    2  A    between atoms: C_2  and  C_31
REMARK    3  A    between atoms: O_3  and  C_4
REMARK    4  A    between atoms: C_9  and  C_10
REMARK    5  A    between atoms: C_13  and  O_14
REMARK    6  A    between atoms: O_14  and  C_15
REMARK    7  A    between atoms: C_18  and  C_19
REMARK    8  A    between atoms: C_20  and  C_21
REMARK                            x       y       z     vdW  Elec       q    Type
REMARK                         _______ _______ _______ _____ _____    ______ ____
ROOT
ATOM      4  C   UNL     1       2.381  -1.192  -0.475  0.00  0.00    +0.000 C 
ATOM      5  C   UNL     1       2.691  -2.605   0.413  0.00  0.00    +0.000 C 
ATOM      6  O   UNL     1       4.144  -2.519   0.053  0.00  0.00    +0.000 OA
ATOM      7  C   UNL     1       2.402  -3.624  -0.916  0.00  0.00    +0.000 C 
ATOM      8  O   UNL     1       2.564  -4.830  -0.040  0.00  0.00    +0.000 OA
ATOM      9  C   UNL     1       0.689  -3.690  -0.774  0.00  0.00    +0.000 C 
ATOM     12  O   UNL     1       0.524  -2.294  -1.315  0.00  0.00    +0.000 OA
ATOM     13  C   UNL     1       0.706  -1.379  -0.124  0.00  0.00    +0.000 C 
ENDROOT
BRANCH   9  10
ATOM     10  C   UNL     1       0.582  -3.371   0.835  0.00  0.00    +0.000 C 
ATOM     11  O   UNL     1       0.745  -4.585   1.466  0.00  0.00    +0.000 OA
ENDBRANCH   9  10
BRANCH   4   3
ATOM      3  O   UNL     1       2.676  -0.365   0.763  0.00  0.00    +0.000 OA
BRANCH   3   2
ATOM      1  O   UNL     1       2.920   0.941   0.529  0.00  0.00    +0.000 OA
ATOM      2  C   UNL     1       3.068   0.891   0.549  0.00  0.00    +0.000 C 
BRANCH   2  31
ATOM     31  C   UNL     1       4.266   1.662   0.589  0.00  0.00    +0.000 A 
ATOM     32  C   UNL     1       5.475   1.347   1.119  0.00  0.00    +0.000 A 
ATOM     33  C   UNL     1       6.603   2.037   0.831  0.00  0.00    +0.000 A 
ATOM     34  O   UNL     1       7.699   1.890   1.684  0.00  0.00    +0.000 OA
ATOM     35  C   UNL     1       6.559   3.026  -0.136  0.00  0.00    +0.000 A 
ATOM     36  O   UNL     1       7.639   3.880  -0.290  0.00  0.00    +0.000 OA
ATOM     37  C   UNL     1       5.397   3.339  -0.778  0.00  0.00    +0.000 A 
ATOM     38  O   UNL     1       5.265   4.390  -1.688  0.00  0.00    +0.000 OA
ATOM     39  C   UNL     1       4.265   2.707  -0.332  0.00  0.00    +0.000 A 
ENDBRANCH   2  31
ENDBRANCH   3   2
ENDBRANCH   4   3
BRANCH  13  14
ATOM     14  O   UNL     1       0.364  -0.145  -1.001  0.00  0.00    +0.000 OA
BRANCH  14  15
ATOM     15  C   UNL     1      -1.012   0.072  -0.879  0.00  0.00    +0.000 A 
ATOM     16  C   UNL     1      -1.903  -0.314  -1.871  0.00  0.00    +0.000 A 
ATOM     17  C   UNL     1      -3.150  -0.853  -1.570  0.00  0.00    +0.000 A 
ATOM     18  C   UNL     1      -3.525  -0.929  -0.253  0.00  0.00    +0.000 A 
ATOM     29  C   UNL     1      -2.941   0.006   0.596  0.00  0.00    +0.000 A 
ATOM     30  C   UNL     1      -1.610   0.327   0.346  0.00  0.00    +0.000 A 
BRANCH  18  19
ATOM     19  C   UNL     1      -4.493  -1.903   0.263  0.00  0.00    +0.000 C 
ATOM     20  C   UNL     1      -5.313  -1.405   1.192  0.00  0.00    +0.000 C 
BRANCH  20  21
ATOM     21  C   UNL     1      -5.969  -0.147   0.808  0.00  0.00    +0.000 A 
ATOM     22  C   UNL     1      -5.931   0.976   1.609  0.00  0.00    +0.000 A 
ATOM     23  C   UNL     1      -6.484   2.132   1.087  0.00  0.00    +0.000 A 
ATOM     24  O   UNL     1      -6.189   3.385   1.605  0.00  0.00    +0.000 OA
ATOM     25  C   UNL     1      -7.618   1.956   0.302  0.00  0.00    +0.000 A 
ATOM     26  C   UNL     1      -7.771   0.790  -0.425  0.00  0.00    +0.000 A 
ATOM     27  O   UNL     1      -8.951   0.553  -1.121  0.00  0.00    +0.000 OA
ATOM     28  C   UNL     1      -6.764  -0.157  -0.308  0.00  0.00    +0.000 A 
ENDBRANCH  20  21
ENDBRANCH  18  19
ENDBRANCH  14  15
ENDBRANCH  13  14
TORSDOF 8
