
     RDKit          3D

 39 42  0  0  0  0  0  0  0  0999 V2000
   -3.9533   -2.4103   -2.3547 O   0  0  0  0  0  0  0  0  0  0  0  0
   -4.0277   -2.0463   -1.3188 C   0  0  0  0  0  0  0  0  0  0  0  0
   -2.8419   -1.8216   -0.6740 O   0  0  0  0  0  0  0  0  0  0  0  0
   -1.5422   -2.3708   -1.1624 C   0  0  2  0  0  0  0  0  0  0  0  0
   -1.2174   -3.4879    0.0856 C   0  0  2  0  0  0  0  0  0  0  0  0
   -2.5802   -4.1207   -0.0288 O   0  0  0  0  0  0  0  0  0  0  0  0
   -1.6013   -2.6690    1.5261 C   0  0  1  0  0  0  0  0  0  0  0  0
   -0.2173   -2.1383    1.8421 O   0  0  0  0  0  0  0  0  0  0  0  0
   -2.3006   -1.1960    1.0486 C   0  0  1  0  0  0  0  0  0  0  0  0
   -1.9313   -0.5078    2.4991 C   0  0  0  0  0  0  0  0  0  0  0  0
   -3.1486    0.2178    2.5746 O   0  0  0  0  0  0  0  0  0  0  0  0
   -1.2006   -0.4795    0.3505 O   0  0  0  0  0  0  0  0  0  0  0  0
   -0.3374   -1.5156   -0.2830 C   0  0  2  0  0  0  0  0  0  0  0  0
    0.1232   -0.6065   -1.4604 O   0  0  0  0  0  0  0  0  0  0  0  0
    1.1963    0.1257   -0.9355 C   0  0  0  0  0  0  0  0  0  0  0  0
    2.5040   -0.1882   -0.8892 C   0  0  0  0  0  0  0  0  0  0  0  0
    3.4084    0.7169   -0.3360 C   0  0  0  0  0  0  0  0  0  0  0  0
    3.0159    1.7631    0.4426 C   0  0  0  0  0  0  0  0  0  0  0  0
    3.7045    2.3635    1.5507 C   0  0  0  0  0  0  0  0  0  0  0  0
    4.8793    1.9064    1.8659 C   0  0  0  0  0  0  0  0  0  0  0  0
    5.8636    1.6367    0.8117 C   0  0  0  0  0  0  0  0  0  0  0  0
    6.9232    2.5488    0.8425 C   0  0  0  0  0  0  0  0  0  0  0  0
    8.0436    2.3254    0.0511 C   0  0  0  0  0  0  0  0  0  0  0  0
    9.0519    3.2737   -0.0430 O   0  0  0  0  0  0  0  0  0  0  0  0
    8.1555    1.1003   -0.5562 C   0  0  0  0  0  0  0  0  0  0  0  0
    7.2697    0.0943   -0.2444 C   0  0  0  0  0  0  0  0  0  0  0  0
    7.2201   -1.0717   -1.0092 O   0  0  0  0  0  0  0  0  0  0  0  0
    6.3920    0.3402    0.8057 C   0  0  0  0  0  0  0  0  0  0  0  0
    1.6484    2.0253    0.4219 C   0  0  0  0  0  0  0  0  0  0  0  0
    0.8421    1.3990   -0.5082 C   0  0  0  0  0  0  0  0  0  0  0  0
   -5.1159   -1.0430   -1.1569 C   0  0  0  0  0  0  0  0  0  0  0  0
   -6.1791   -1.2048   -0.2833 C   0  0  0  0  0  0  0  0  0  0  0  0
   -6.8337   -0.1066    0.2650 C   0  0  0  0  0  0  0  0  0  0  0  0
   -8.2005   -0.0664    0.5179 O   0  0  0  0  0  0  0  0  0  0  0  0
   -6.1048    1.0802    0.3262 C   0  0  0  0  0  0  0  0  0  0  0  0
   -6.7368    2.1950    0.8765 O   0  0  0  0  0  0  0  0  0  0  0  0
   -5.1556    1.3550   -0.6548 C   0  0  0  0  0  0  0  0  0  0  0  0
   -4.1983    2.3041   -0.2614 O   0  0  0  0  0  0  0  0  0  0  0  0
   -4.8173    0.2797   -1.4727 C   0  0  0  0  0  0  0  0  0  0  0  0
  1  2  2  0
  2  3  1  0
  4  3  1  1
  4  5  1  0
  5  6  1  6
  5  7  1  0
  7  8  1  6
  7  9  1  0
  9 10  1  1
 10 11  1  0
  9 12  1  0
 12 13  1  0
 13 14  1  6
 14 15  1  0
 15 16  2  0
 16 17  1  0
 17 18  2  0
 18 19  1  0
 19 20  2  0
 20 21  1  0
 21 22  2  0
 22 23  1  0
 23 24  1  0
 23 25  2  0
 25 26  1  0
 26 27  1  0
 26 28  2  0
 18 29  1  0
 29 30  2  0
  2 31  1  0
 31 32  2  0
 32 33  1  0
 33 34  1  0
 33 35  2  0
 35 36  1  0
 35 37  1  0
 37 38  1  0
 37 39  2  0
 13  4  1  0
 30 15  1  0
 39 31  1  0
 28 21  1  0
M  END
>  <zinc_id>  (1) 
ZINC000230097112

>  <smiles>  (1) 
O=C(O[C@H]1[C@@H](Oc2ccc(/C=C\c3cc(O)cc(O)c3)cc2)O[C@H](CO)[C@H](O)[C@H]1O)c1cc(O)c(O)c(O)c1

$$$$
