REMARK  Name = 
REMARK  8 active torsions:
REMARK  status: ('A' for Active; 'I' for Inactive)
REMARK    1  A    between atoms: C_2  and  O_3
REMARK    2  A    between atoms: C_2  and  C_31
REMARK    3  A    between atoms: O_3  and  C_4
REMARK    4  A    between atoms: C_4  and  C_5
REMARK    5  A    between atoms: C_7  and  O_8
REMARK    6  A    between atoms: O_8  and  C_9
REMARK    7  A    between atoms: C_12  and  C_13
REMARK    8  A    between atoms: C_14  and  C_15
REMARK                            x       y       z     vdW  Elec       q    Type
REMARK                         _______ _______ _______ _____ _____    ______ ____
ROOT
ATOM      5  C   UNL     1      -2.168  -0.655   0.737  0.00  0.00    +0.000 C 
ATOM      6  O   UNL     1      -1.151   0.158   1.507  0.00  0.00    +0.000 OA
ATOM      7  C   UNL     1      -0.066  -0.692   0.851  0.00  0.00    +0.000 C 
ATOM     25  C   UNL     1      -0.076   0.103  -0.689  0.00  0.00    +0.000 C 
ATOM     26  O   UNL     1      -1.091  -0.781  -1.340  0.00  0.00    +0.000 OA
ATOM     27  C   UNL     1      -1.066   1.411  -0.233  0.00  0.00    +0.000 C 
ATOM     28  O   UNL     1      -1.133   1.876  -1.658  0.00  0.00    +0.000 OA
ATOM     29  C   UNL     1      -2.570   0.628  -0.343  0.00  0.00    +0.000 C 
ATOM     30  O   UNL     1      -3.132   1.576   0.671  0.00  0.00    +0.000 OA
ENDROOT
BRANCH   5   4
ATOM      4  C   UNL     1      -3.402  -0.426   1.787  0.00  0.00    +0.000 C 
BRANCH   4   3
ATOM      3  O   UNL     1      -4.363  -1.264   1.148  0.00  0.00    +0.000 OA
BRANCH   3   2
ATOM      1  O   UNL     1      -4.400  -1.243  -0.318  0.00  0.00    +0.000 OA
ATOM      2  C   UNL     1      -4.625  -1.149  -0.222  0.00  0.00    +0.000 C 
BRANCH   2  31
ATOM     31  C   UNL     1      -5.949  -0.747  -0.729  0.00  0.00    +0.000 A 
ATOM     32  C   UNL     1      -7.053  -1.580  -0.586  0.00  0.00    +0.000 A 
ATOM     33  C   UNL     1      -8.270  -1.081  -0.138  0.00  0.00    +0.000 A 
ATOM     34  O   UNL     1      -9.254  -1.992   0.244  0.00  0.00    +0.000 OA
ATOM     35  C   UNL     1      -8.360   0.245   0.275  0.00  0.00    +0.000 A 
ATOM     36  O   UNL     1      -9.598   0.783   0.568  0.00  0.00    +0.000 OA
ATOM     37  C   UNL     1      -7.423   1.130  -0.252  0.00  0.00    +0.000 A 
ATOM     38  O   UNL     1      -7.388   2.430   0.276  0.00  0.00    +0.000 OA
ATOM     39  C   UNL     1      -6.318   0.583  -0.898  0.00  0.00    +0.000 A 
ENDBRANCH   2  31
ENDBRANCH   3   2
ENDBRANCH   4   3
ENDBRANCH   5   4
BRANCH   7   8
ATOM      8  O   UNL     1       1.087   0.231   1.321  0.00  0.00    +0.000 OA
BRANCH   8   9
ATOM      9  C   UNL     1       2.245   0.077   0.593  0.00  0.00    +0.000 A 
ATOM     10  C   UNL     1       3.528  -0.099   1.076  0.00  0.00    +0.000 A 
ATOM     11  C   UNL     1       4.598  -0.029   0.172  0.00  0.00    +0.000 A 
ATOM     12  C   UNL     1       4.418  -0.312  -1.154  0.00  0.00    +0.000 A 
ATOM     23  C   UNL     1       3.086  -0.296  -1.578  0.00  0.00    +0.000 A 
ATOM     24  C   UNL     1       2.276   0.455  -0.756  0.00  0.00    +0.000 A 
BRANCH  12  13
ATOM     13  C   UNL     1       5.299  -0.147  -2.278  0.00  0.00    +0.000 C 
ATOM     14  C   UNL     1       6.320   0.667  -2.279  0.00  0.00    +0.000 C 
BRANCH  14  15
ATOM     15  C   UNL     1       7.212   0.332  -1.163  0.00  0.00    +0.000 A 
ATOM     16  C   UNL     1       8.004   1.339  -0.697  0.00  0.00    +0.000 A 
ATOM     17  C   UNL     1       8.894   1.039   0.302  0.00  0.00    +0.000 A 
ATOM     18  O   UNL     1       9.725   2.059   0.733  0.00  0.00    +0.000 OA
ATOM     19  C   UNL     1       8.845  -0.201   0.927  0.00  0.00    +0.000 A 
ATOM     20  C   UNL     1       8.169  -1.276   0.363  0.00  0.00    +0.000 A 
ATOM     21  O   UNL     1       7.604  -2.170   1.283  0.00  0.00    +0.000 OA
ATOM     22  C   UNL     1       7.543  -0.981  -0.845  0.00  0.00    +0.000 A 
ENDBRANCH  14  15
ENDBRANCH  12  13
ENDBRANCH   8   9
ENDBRANCH   7   8
TORSDOF 8
