
     RDKit          3D

 39 42  0  0  0  0  0  0  0  0999 V2000
   -3.3188    0.2580   -1.0056 O   0  0  0  0  0  0  0  0  0  0  0  0
   -4.5176   -0.0703   -0.7836 C   0  0  0  0  0  0  0  0  0  0  0  0
   -4.7121   -1.2540   -0.1087 O   0  0  0  0  0  0  0  0  0  0  0  0
   -3.7479   -1.8144    0.7792 C   0  0  0  0  0  0  0  0  0  0  0  0
   -2.4039   -1.8416   -0.1998 C   0  0  1  0  0  0  0  0  0  0  0  0
   -1.4490   -1.8198    1.0062 O   0  0  0  0  0  0  0  0  0  0  0  0
   -0.3245   -1.6375   -0.0547 C   0  0  1  0  0  0  0  0  0  0  0  0
    0.7633   -1.3620    1.0537 O   0  0  0  0  0  0  0  0  0  0  0  0
    1.9678   -1.2782    0.3698 C   0  0  0  0  0  0  0  0  0  0  0  0
    2.6869   -2.4068   -0.0116 C   0  0  0  0  0  0  0  0  0  0  0  0
    4.0444   -2.3182   -0.3060 C   0  0  0  0  0  0  0  0  0  0  0  0
    4.7525   -1.1433   -0.0391 C   0  0  0  0  0  0  0  0  0  0  0  0
    5.9972   -1.3103    0.7228 C   0  0  0  0  0  0  0  0  0  0  0  0
    6.2889   -0.2750    1.5146 C   0  0  0  0  0  0  0  0  0  0  0  0
    6.5918    0.9148    0.7067 C   0  0  0  0  0  0  0  0  0  0  0  0
    7.7520    0.8254   -0.0530 C   0  0  0  0  0  0  0  0  0  0  0  0
    8.5077    1.9402   -0.3822 C   0  0  0  0  0  0  0  0  0  0  0  0
    9.8337    1.8430   -0.8167 O   0  0  0  0  0  0  0  0  0  0  0  0
    7.8724    3.1649   -0.2192 C   0  0  0  0  0  0  0  0  0  0  0  0
    6.6329    3.2860    0.3880 C   0  0  0  0  0  0  0  0  0  0  0  0
    5.7805    4.3658    0.1379 O   0  0  0  0  0  0  0  0  0  0  0  0
    6.1535    2.1795    1.0568 C   0  0  0  0  0  0  0  0  0  0  0  0
    3.9571   -0.0301   -0.0082 C   0  0  0  0  0  0  0  0  0  0  0  0
    2.5650   -0.0776    0.0050 C   0  0  0  0  0  0  0  0  0  0  0  0
    0.1446   -3.3374   -0.0857 C   0  0  1  0  0  0  0  0  0  0  0  0
   -0.5993   -3.7740    1.1497 O   0  0  0  0  0  0  0  0  0  0  0  0
   -1.0790   -3.8004   -1.2263 C   0  0  2  0  0  0  0  0  0  0  0  0
   -1.1789   -2.4570   -1.9326 O   0  0  0  0  0  0  0  0  0  0  0  0
   -2.4229   -3.5807   -0.1547 C   0  0  2  0  0  0  0  0  0  0  0  0
   -3.3615   -3.6387   -1.3389 O   0  0  0  0  0  0  0  0  0  0  0  0
   -5.5173    1.0039   -0.8335 C   0  0  0  0  0  0  0  0  0  0  0  0
   -6.7905    0.7893   -1.2804 C   0  0  0  0  0  0  0  0  0  0  0  0
   -7.8060    1.7136   -1.1535 C   0  0  0  0  0  0  0  0  0  0  0  0
   -9.1033    1.4487   -1.5715 O   0  0  0  0  0  0  0  0  0  0  0  0
   -7.5672    2.7619   -0.2714 C   0  0  0  0  0  0  0  0  0  0  0  0
   -8.6071    3.6640   -0.0484 O   0  0  0  0  0  0  0  0  0  0  0  0
   -6.3460    2.9245    0.3392 C   0  0  0  0  0  0  0  0  0  0  0  0
   -6.1555    4.0248    1.1763 O   0  0  0  0  0  0  0  0  0  0  0  0
   -5.2838    2.1193   -0.0457 C   0  0  0  0  0  0  0  0  0  0  0  0
  1  2  2  0
  2  3  1  0
  3  4  1  0
  5  4  1  1
  5  6  1  0
  6  7  1  0
  7  8  1  1
  8  9  1  0
  9 10  2  0
 10 11  1  0
 11 12  2  0
 12 13  1  0
 13 14  2  0
 14 15  1  0
 15 16  2  0
 16 17  1  0
 17 18  1  0
 17 19  2  0
 19 20  1  0
 20 21  1  0
 20 22  2  0
 12 23  1  0
 23 24  2  0
  7 25  1  0
 25 26  1  1
 25 27  1  0
 27 28  1  6
 27 29  1  0
 29 30  1  6
  2 31  1  0
 31 32  2  0
 32 33  1  0
 33 34  1  0
 33 35  2  0
 35 36  1  0
 35 37  1  0
 37 38  1  0
 37 39  2  0
 29  5  1  0
 39 31  1  0
 24  9  1  0
 22 15  1  0
M  END
>  <zinc_id>  (1) 
ZINC000100823225

>  <smiles>  (1) 
O=C(OC[C@H]1O[C@@H](Oc2ccc(/C=C\c3cc(O)cc(O)c3)cc2)[C@@H](O)[C@H](O)[C@@H]1O)c1cc(O)c(O)c(O)c1

$$$$
