
     RDKit          3D

 21 22  0  0  0  0  0  0  0  0999 V2000
    5.9654    2.3975   -0.7505 O   0  0  0  0  0  0  0  0  0  0  0  0
    5.0968    1.3609   -0.1216 S   0  0  0  0  0  0  0  0  0  0  0  0
    5.6076   -0.0035   -0.4425 O   0  0  0  0  0  0  0  0  0  0  0  0
    5.0335    1.5820    1.5346 O   0  0  0  0  0  0  0  0  0  0  0  0
    3.4852    1.4525   -0.6915 O   0  0  0  0  0  0  0  0  0  0  0  0
    2.6509    0.3960   -0.3231 C   0  0  0  0  0  0  0  0  0  0  0  0
    3.0282   -0.9207   -0.5483 C   0  0  0  0  0  0  0  0  0  0  0  0
    2.0928   -1.9456   -0.6024 C   0  0  0  0  0  0  0  0  0  0  0  0
    2.5427   -3.2443   -0.8400 O   0  0  0  0  0  0  0  0  0  0  0  0
    0.7776   -1.6783   -0.2479 C   0  0  0  0  0  0  0  0  0  0  0  0
    0.3868   -0.3488   -0.3358 C   0  0  0  0  0  0  0  0  0  0  0  0
   -1.0079   -0.0258   -0.6215 C   0  0  0  0  0  0  0  0  0  0  0  0
   -1.8306    0.5032    0.2608 C   0  0  0  0  0  0  0  0  0  0  0  0
   -3.2394    0.1345    0.2202 C   0  0  0  0  0  0  0  0  0  0  0  0
   -3.8785    0.0795   -0.9998 C   0  0  0  0  0  0  0  0  0  0  0  0
   -5.2025   -0.3355   -1.0294 C   0  0  0  0  0  0  0  0  0  0  0  0
   -6.0225   -0.0096    0.0171 C   0  0  0  0  0  0  0  0  0  0  0  0
   -7.3556   -0.4283   -0.0238 O   0  0  0  0  0  0  0  0  0  0  0  0
   -5.4094    0.2922    1.2267 C   0  0  0  0  0  0  0  0  0  0  0  0
   -4.0433    0.1541    1.3509 C   0  0  0  0  0  0  0  0  0  0  0  0
    1.3220    0.5881    0.0299 C   0  0  0  0  0  0  0  0  0  0  0  0
  1  2  2  0
  2  3  2  0
  2  4  1  0
  2  5  1  0
  5  6  1  0
  6  7  2  0
  7  8  1  0
  8  9  1  0
  8 10  2  0
 10 11  1  0
 11 12  1  0
 12 13  2  0
 13 14  1  0
 14 15  2  0
 15 16  1  0
 16 17  2  0
 17 18  1  0
 17 19  1  0
 19 20  2  0
 11 21  2  0
 21  6  1  0
 20 14  1  0
M  END
>  <zinc_id>  (1) 
ZINC000035653092

>  <smiles>  (1) 
O=S(=O)(O)Oc1cc(O)cc(/C=C/c2ccc(O)cc2)c1

$$$$
