
     RDKit          3D

 28 30  0  0  0  0  0  0  0  0999 V2000
    6.4022   -0.7256    0.3707 O   0  0  0  0  0  0  0  0  0  0  0  0
    6.0538   -1.2975   -0.4009 C   0  0  0  0  0  0  0  0  0  0  0  0
    4.4638   -0.8872   -0.6956 C   0  0  1  0  0  0  0  0  0  0  0  0
    4.0875   -1.3016    0.7181 O   0  0  0  0  0  0  0  0  0  0  0  0
    2.5424   -1.2324    0.7006 C   0  0  2  0  0  0  0  0  0  0  0  0
    2.3839   -1.0097   -0.8612 O   0  0  0  0  0  0  0  0  0  0  0  0
    1.0770   -1.0917   -1.2977 C   0  0  0  0  0  0  0  0  0  0  0  0
    0.1137   -1.9157   -0.7147 C   0  0  0  0  0  0  0  0  0  0  0  0
   -1.1469   -1.4131   -0.3646 C   0  0  0  0  0  0  0  0  0  0  0  0
   -1.3898   -0.0395   -0.4120 C   0  0  0  0  0  0  0  0  0  0  0  0
   -1.6608    0.7599    0.7968 C   0  0  0  0  0  0  0  0  0  0  0  0
   -2.7332    0.4108    1.4724 C   0  0  0  0  0  0  0  0  0  0  0  0
   -3.9681    0.3686    0.6943 C   0  0  0  0  0  0  0  0  0  0  0  0
   -4.1476    1.3895   -0.2235 C   0  0  0  0  0  0  0  0  0  0  0  0
   -5.2819    1.4636   -1.0151 C   0  0  0  0  0  0  0  0  0  0  0  0
   -5.5173    2.6152   -1.7201 O   0  0  0  0  0  0  0  0  0  0  0  0
   -6.1280    0.3860   -0.9461 C   0  0  0  0  0  0  0  0  0  0  0  0
   -5.7997   -0.7851   -0.2745 C   0  0  0  0  0  0  0  0  0  0  0  0
   -6.6439   -1.8887   -0.2503 O   0  0  0  0  0  0  0  0  0  0  0  0
   -4.6593   -0.8009    0.4890 C   0  0  0  0  0  0  0  0  0  0  0  0
   -0.7061    0.5297   -1.4847 C   0  0  0  0  0  0  0  0  0  0  0  0
    0.4614   -0.0420   -1.9881 C   0  0  0  0  0  0  0  0  0  0  0  0
    2.4476    0.4930    1.0970 C   0  0  1  0  0  0  0  0  0  0  0  0
    3.7443    0.5507    1.8655 O   0  0  0  0  0  0  0  0  0  0  0  0
    3.0480    1.0571   -0.4225 C   0  0  1  0  0  0  0  0  0  0  0  0
    3.1807    2.4541    0.1602 O   0  0  0  0  0  0  0  0  0  0  0  0
    4.7160    0.7410   -0.1090 C   0  0  2  0  0  0  0  0  0  0  0  0
    5.0603    1.2113   -1.4994 O   0  0  0  0  0  0  0  0  0  0  0  0
  1  2  1  0
  3  2  1  1
  3  4  1  0
  4  5  1  0
  5  6  1  6
  6  7  1  0
  7  8  2  0
  8  9  1  0
  9 10  2  0
 10 11  1  0
 11 12  2  0
 12 13  1  0
 13 14  2  0
 14 15  1  0
 15 16  1  0
 15 17  2  0
 17 18  1  0
 18 19  1  0
 18 20  2  0
 10 21  1  0
 21 22  2  0
  5 23  1  0
 23 24  1  1
 23 25  1  0
 25 26  1  1
 25 27  1  0
 27 28  1  6
 27  3  1  0
 22  7  1  0
 20 13  1  0
M  END
>  <zinc_id>  (1) 
ZINC000015112540

>  <smiles>  (1) 
OC[C@H]1O[C@H](Oc2ccc(/C=C\c3cc(O)cc(O)c3)cc2)[C@@H](O)[C@@H](O)[C@@H]1O

$$$$
