
     RDKit          3D

 39 42  0  0  0  0  0  0  0  0999 V2000
   -4.2097    0.2473   -0.3626 O   0  0  0  0  0  0  0  0  0  0  0  0
   -3.9659    0.1039   -0.0405 C   0  0  0  0  0  0  0  0  0  0  0  0
   -2.9925    1.0074    0.2684 O   0  0  0  0  0  0  0  0  0  0  0  0
   -2.8391    1.9821   -0.8828 C   0  0  1  0  0  0  0  0  0  0  0  0
   -3.6925    3.3139   -0.2630 C   0  0  1  0  0  0  0  0  0  0  0  0
   -5.0034    2.6043   -0.4220 O   0  0  0  0  0  0  0  0  0  0  0  0
   -3.6287    2.8877    1.3762 C   0  0  2  0  0  0  0  0  0  0  0  0
   -4.2013    4.2177    1.7580 O   0  0  0  0  0  0  0  0  0  0  0  0
   -2.0446    3.4599    1.6963 C   0  0  2  0  0  0  0  0  0  0  0  0
   -1.9378    4.5227    0.4514 C   0  0  0  0  0  0  0  0  0  0  0  0
   -1.4754    5.6855    1.0130 O   0  0  0  0  0  0  0  0  0  0  0  0
   -1.3966    2.2693    1.0483 O   0  0  0  0  0  0  0  0  0  0  0  0
   -1.3128    2.6535   -0.4146 C   0  0  1  0  0  0  0  0  0  0  0  0
   -0.6217    1.3423   -0.8128 O   0  0  0  0  0  0  0  0  0  0  0  0
    0.3022    0.7489   -0.0395 C   0  0  0  0  0  0  0  0  0  0  0  0
    1.4053    1.3183    0.5830 C   0  0  0  0  0  0  0  0  0  0  0  0
    2.6895    0.8150    0.3742 C   0  0  0  0  0  0  0  0  0  0  0  0
    2.9108   -0.2759   -0.4642 C   0  0  0  0  0  0  0  0  0  0  0  0
    3.8254   -0.1806   -1.6188 C   0  0  0  0  0  0  0  0  0  0  0  0
    4.9374    0.5040   -1.3431 C   0  0  0  0  0  0  0  0  0  0  0  0
    5.7434   -0.0837   -0.2621 C   0  0  0  0  0  0  0  0  0  0  0  0
    6.9696    0.5120   -0.0085 C   0  0  0  0  0  0  0  0  0  0  0  0
    8.1174   -0.2346    0.2357 C   0  0  0  0  0  0  0  0  0  0  0  0
    9.3662    0.3370    0.3400 O   0  0  0  0  0  0  0  0  0  0  0  0
    7.9665   -1.5808    0.4942 C   0  0  0  0  0  0  0  0  0  0  0  0
    6.7421   -2.2028    0.4072 C   0  0  0  0  0  0  0  0  0  0  0  0
    6.7033   -3.5853    0.4140 O   0  0  0  0  0  0  0  0  0  0  0  0
    5.6822   -1.4496   -0.0147 C   0  0  0  0  0  0  0  0  0  0  0  0
    1.7995   -1.1162   -0.5118 C   0  0  0  0  0  0  0  0  0  0  0  0
    0.5157   -0.5926   -0.3581 C   0  0  0  0  0  0  0  0  0  0  0  0
   -3.9739   -1.3401   -0.0219 C   0  0  0  0  0  0  0  0  0  0  0  0
   -5.0661   -1.9302    0.5726 C   0  0  0  0  0  0  0  0  0  0  0  0
   -4.9633   -3.2725    0.9080 C   0  0  0  0  0  0  0  0  0  0  0  0
   -5.6264   -3.8107    1.9954 O   0  0  0  0  0  0  0  0  0  0  0  0
   -4.0446   -4.0063    0.1692 C   0  0  0  0  0  0  0  0  0  0  0  0
   -3.6034   -5.2413    0.6519 O   0  0  0  0  0  0  0  0  0  0  0  0
   -3.2031   -3.4097   -0.7616 C   0  0  0  0  0  0  0  0  0  0  0  0
   -2.5141   -4.1490   -1.7003 O   0  0  0  0  0  0  0  0  0  0  0  0
   -3.3597   -2.0706   -1.0257 C   0  0  0  0  0  0  0  0  0  0  0  0
  1  2  2  0
  2  3  1  0
  4  3  1  1
  4  5  1  0
  5  6  1  6
  5  7  1  0
  7  8  1  1
  7  9  1  0
  9 10  1  6
 10 11  1  0
  9 12  1  0
 12 13  1  0
 13 14  1  6
 14 15  1  0
 15 16  2  0
 16 17  1  0
 17 18  2  0
 18 19  1  0
 19 20  2  0
 20 21  1  0
 21 22  2  0
 22 23  1  0
 23 24  1  0
 23 25  2  0
 25 26  1  0
 26 27  1  0
 26 28  2  0
 18 29  1  0
 29 30  2  0
  2 31  1  0
 31 32  2  0
 32 33  1  0
 33 34  1  0
 33 35  2  0
 35 36  1  0
 35 37  1  0
 37 38  1  0
 37 39  2  0
 13  4  1  0
 30 15  1  0
 39 31  1  0
 28 21  1  0
M  END
>  <zinc_id>  (1) 
ZINC000100827958

>  <smiles>  (1) 
O=C(O[C@@H]1[C@H](Oc2ccc(/C=C\c3cc(O)cc(O)c3)cc2)O[C@@H](CO)[C@@H](O)[C@@H]1O)c1cc(O)c(O)c(O)c1

$$$$
